* PEX produced on Sun Apr 16 07:15:33 PM CEST 2023 using /foss/tools/iic-osic/iic-pex.sh with m=1 and s=1
* NGSPICE file created from hpretl_tt03_temperature_sensor.ext - technology: sky130A

.subckt hpretl_tt03_temperature_sensor io_in[1] io_in[2] io_in[3] io_in[4] io_in[5]
+ io_in[6] io_in[7] io_out[0] io_out[1] io_out[2] io_out[3] io_out[4] io_out[5] io_out[6]
+ io_out[7] io_in[0] vccd1 vssd1
X0 temp1.capload\[7\].cap.Z temp1.dcdc.Z a_6736_15055# vssd1 sky130_fd_pr__nfet_01v8 ad=0.1755 pd=1.84 as=0.235625 ps=1.375 w=0.65 l=0.15
X3 vssd1 a_1766_2223# clkbuf_1_1__f_io_in[0].A vssd1 sky130_fd_pr__nfet_01v8 ad=0.0588 pd=0.7 as=0.0588 ps=0.7 w=0.42 l=0.15
X7 vccd1 a_2198_1653# a_2125_1679# vccd1 sky130_fd_pr__pfet_01v8_hvt ad=0.178875 pd=1.26 as=0.07665 ps=0.785 w=0.42 l=0.15
X11 a_3312_18793# a_3063_18543# vccd1 vccd1 sky130_fd_pr__pfet_01v8_hvt ad=0.1825 pd=1.365 as=0.32075 ps=1.685 w=1 l=0.15
X29 vssd1 io_in[0] a_1766_2223# vssd1 sky130_fd_pr__nfet_01v8 ad=0.0588 pd=0.7 as=0.0588 ps=0.7 w=0.42 l=0.15
X30 a_3656_20407# temp1.dac.parallel_cells\[3\].vdac_batch.einvp_batch\[1\].vref.TE vssd1 vssd1 sky130_fd_pr__nfet_01v8 ad=0.1092 pd=1.36 as=0.097 ps=0.975 w=0.42 l=0.15
X32 _095_.CLK a_1674_1135# vccd1 vccd1 sky130_fd_pr__pfet_01v8_hvt ad=0.14 pd=1.28 as=0.14 ps=1.28 w=1 l=0.15
X48 a_4130_1653# a_3971_1679# vccd1 vccd1 sky130_fd_pr__pfet_01v8_hvt ad=0.1095 pd=1.075 as=0.178875 ps=1.26 w=0.75 l=0.15
X53 a_3404_17999# a_3155_17999# vccd1 vccd1 sky130_fd_pr__pfet_01v8_hvt ad=0.1825 pd=1.365 as=0.32075 ps=1.685 w=1 l=0.15
X54 temp1.capload\[2\].cap.Z temp1.dcdc.Z a_8004_16617# vccd1 sky130_fd_pr__pfet_01v8_hvt ad=0.27 pd=2.54 as=0.1825 ps=1.365 w=1 l=0.15
X57 a_2125_1679# a_1591_1685# a_2030_1679# vccd1 sky130_fd_pr__pfet_01v8_hvt ad=0.07665 pd=0.785 as=0.06825 ps=0.745 w=0.42 l=0.15
X65 temp1.dac.parallel_cells\[3\].vdac_batch.einvp_batch\[1\].vref.Z temp1.dac.parallel_cells\[3\].vdac_batch.einvp_batch\[4\].pupd.A a_3312_18793# vccd1 sky130_fd_pr__pfet_01v8_hvt ad=0.27 pd=2.54 as=0.1825 ps=1.365 w=1 l=0.15
X67 vccd1 a_1766_2223# clkbuf_1_1__f_io_in[0].A vccd1 sky130_fd_pr__pfet_01v8_hvt ad=0.14 pd=1.28 as=0.14 ps=1.28 w=1 l=0.15
X71 vssd1 temp1.dac.parallel_cells\[3\].vdac_batch.einvp_batch\[4\].pupd.TE a_3331_19407# vssd1 sky130_fd_pr__nfet_01v8 ad=0.097 pd=0.975 as=0.235625 ps=1.375 w=0.65 l=0.15
X81 a_2321_10703# _055_.A1 vssd1 vssd1 sky130_fd_pr__nfet_01v8 ad=0.169 pd=1.82 as=0.08775 ps=0.92 w=0.65 l=0.15
X92 _051_.Y _051_.B1 a_3615_21263# vccd1 sky130_fd_pr__pfet_01v8_hvt ad=0.265 pd=2.53 as=0.14 ps=1.28 w=1 l=0.15
X93 temp1.dac.parallel_cells\[3\].vdac_batch.einvp_batch\[1\].vref.Z temp1.dac.parallel_cells\[3\].vdac_batch.einvp_batch\[4\].pupd.A a_3240_17455# vssd1 sky130_fd_pr__nfet_01v8 ad=0.1755 pd=1.84 as=0.235625 ps=1.375 w=0.65 l=0.15
X100 a_5796_16911# a_5547_16911# vccd1 vccd1 sky130_fd_pr__pfet_01v8_hvt ad=0.1825 pd=1.365 as=0.32075 ps=1.685 w=1 l=0.15
X104 a_4337_1135# _061_.X vccd1 vccd1 sky130_fd_pr__pfet_01v8_hvt ad=0.05775 pd=0.695 as=0.1092 ps=1.36 w=0.42 l=0.15
X107 temp1.dac.parallel_cells\[3\].vdac_batch.einvp_batch\[1\].vref.Z temp1.dac.parallel_cells\[3\].vdac_batch.einvp_batch\[4\].pupd.A a_3404_17999# vccd1 sky130_fd_pr__pfet_01v8_hvt ad=0.27 pd=2.54 as=0.1825 ps=1.365 w=1 l=0.15
X111 vssd1 temp1.dac.parallel_cells\[3\].vdac_batch.einvp_batch\[1\].vref.TE a_1867_17455# vssd1 sky130_fd_pr__nfet_01v8 ad=0.097 pd=0.975 as=0.1092 ps=1.36 w=0.42 l=0.15
X112 vssd1 _109_.A temp1.dac.parallel_cells\[1\].vdac_batch.einvp_batch\[1\].vref.TE vssd1 sky130_fd_pr__nfet_01v8 ad=0.17225 pd=1.83 as=0.091 ps=0.93 w=0.65 l=0.15
X117 _090_.A1 a_4776_14165# vssd1 vssd1 sky130_fd_pr__nfet_01v8 ad=0.08775 pd=0.92 as=0.10025 ps=0.985 w=0.65 l=0.15
X123 a_4535_14735# _080_.A1 vccd1 vccd1 sky130_fd_pr__pfet_01v8_hvt ad=0.14 pd=1.28 as=0.1475 ps=1.295 w=1 l=0.15
X129 vccd1 a_1674_1135# _095_.CLK vccd1 sky130_fd_pr__pfet_01v8_hvt ad=0.14 pd=1.28 as=0.14 ps=1.28 w=1 l=0.15
X130 vssd1 clkbuf_1_1__f_io_in[0].A a_1674_1135# vssd1 sky130_fd_pr__nfet_01v8 ad=0.0588 pd=0.7 as=0.0588 ps=0.7 w=0.42 l=0.15
X131 _066_.A_N _046_.A a_4413_20719# vssd1 sky130_fd_pr__nfet_01v8 ad=0.169 pd=1.82 as=0.08775 ps=0.92 w=0.65 l=0.15
X135 temp1.dac.parallel_cells\[3\].vdac_batch.einvp_batch\[1\].vref.Z temp1.dac.parallel_cells\[3\].vdac_batch.einvp_batch\[1\].vref.Z a_2044_17455# vssd1 sky130_fd_pr__nfet_01v8 ad=0.1755 pd=1.84 as=0.235625 ps=1.375 w=0.65 l=0.15
R0 vssd1 temp1.capload\[8\].cap.TE sky130_fd_pr__res_generic_po w=0.48 l=0.045
X144 _093_.CLK a_1674_2767# vccd1 vccd1 sky130_fd_pr__pfet_01v8_hvt ad=0.14 pd=1.28 as=0.14 ps=1.28 w=1 l=0.15
X147 vccd1 a_2956_11445# a_2890_11471# vccd1 sky130_fd_pr__pfet_01v8_hvt ad=0.3 pd=2.6 as=0.165 ps=1.33 w=1 l=0.15
X148 a_1840_16911# a_1591_16911# vccd1 vccd1 sky130_fd_pr__pfet_01v8_hvt ad=0.1825 pd=1.365 as=0.32075 ps=1.685 w=1 l=0.15
X156 vssd1 a_1674_2767# _093_.CLK vssd1 sky130_fd_pr__nfet_01v8 ad=0.0588 pd=0.7 as=0.0588 ps=0.7 w=0.42 l=0.15
X158 a_4417_13353# _071_.C a_4345_13353# vccd1 sky130_fd_pr__pfet_01v8_hvt ad=0.06825 pd=0.745 as=0.0441 ps=0.63 w=0.42 l=0.15
X160 temp1.dac.parallel_cells\[3\].vdac_batch.einvp_batch\[1\].vref.Z temp1.dac.parallel_cells\[3\].vdac_batch.einvp_batch\[1\].vref.Z a_5796_16911# vccd1 sky130_fd_pr__pfet_01v8_hvt ad=0.27 pd=2.54 as=0.1825 ps=1.365 w=1 l=0.15
X168 a_5072_14441# _071_.C a_4988_14441# vccd1 sky130_fd_pr__pfet_01v8_hvt ad=0.0567 pd=0.69 as=0.0567 ps=0.69 w=0.42 l=0.15
X170 clkbuf_1_1__f_io_in[0].A a_1766_2223# vccd1 vccd1 sky130_fd_pr__pfet_01v8_hvt ad=0.14 pd=1.28 as=0.14 ps=1.28 w=1 l=0.15
X173 vssd1 temp1.dac.parallel_cells\[1\].vdac_batch.einvp_batch\[1\].vref.TE a_5547_16911# vssd1 sky130_fd_pr__nfet_01v8 ad=0.097 pd=0.975 as=0.1092 ps=1.36 w=0.42 l=0.15
R1 vssd1 temp1.capload\[7\].cap.TE sky130_fd_pr__res_generic_po w=0.48 l=0.045
X175 a_1644_21781# _110_.A vssd1 vssd1 sky130_fd_pr__nfet_01v8 ad=0.1092 pd=1.36 as=0.097 ps=0.975 w=0.42 l=0.15
X176 a_1860_16367# temp1.dac.parallel_cells\[3\].vdac_batch.einvp_batch\[1\].vref.TE vssd1 vssd1 sky130_fd_pr__nfet_01v8 ad=0.235625 pd=1.375 as=0.097 ps=0.975 w=0.65 l=0.15
X178 vssd1 _048_.A _112_.A vssd1 sky130_fd_pr__nfet_01v8 ad=0.169 pd=1.82 as=0.08775 ps=0.92 w=0.65 l=0.15
X182 vccd1 a_2835_25236# _114_.A vccd1 sky130_fd_pr__pfet_01v8_hvt ad=0.11455 pd=1.08 as=0.2054 ps=2.1 w=0.79 l=0.15
X188 temp1.dac.parallel_cells\[3\].vdac_batch.einvp_batch\[1\].vref.Z temp1.dac.parallel_cells\[3\].vdac_batch.einvp_batch\[1\].vref.Z a_1840_16911# vccd1 sky130_fd_pr__pfet_01v8_hvt ad=0.27 pd=2.54 as=0.1825 ps=1.365 w=1 l=0.15
X200 vccd1 a_4558_1653# a_4471_1679# vccd1 sky130_fd_pr__pfet_01v8_hvt ad=0.1218 pd=1.42 as=0.09135 ps=0.855 w=0.42 l=0.15
X204 vssd1 temp1.dac.parallel_cells\[3\].vdac_batch.einvp_batch\[1\].vref.TE a_1591_16911# vssd1 sky130_fd_pr__nfet_01v8 ad=0.097 pd=0.975 as=0.1092 ps=1.36 w=0.42 l=0.15
X210 vssd1 _080_.A2 a_2300_15095# vssd1 sky130_fd_pr__nfet_01v8 ad=0.122275 pd=1.08 as=0.05355 ps=0.675 w=0.42 l=0.15
X227 vccd1 a_1674_2767# _093_.CLK vccd1 sky130_fd_pr__pfet_01v8_hvt ad=0.14 pd=1.28 as=0.14 ps=1.28 w=1 l=0.15
X243 a_2779_20175# temp1.dac.parallel_cells\[3\].vdac_batch.einvp_batch\[1\].vref.Z temp1.dac.parallel_cells\[3\].vdac_batch.einvp_batch\[1\].vref.Z vccd1 sky130_fd_pr__pfet_01v8_hvt ad=0.1825 pd=1.365 as=0.27 ps=2.54 w=1 l=0.15
X245 temp1.dac.parallel_cells\[2\].vdac_batch.einvp_batch\[1\].pupd.A _083_.C_N a_3345_13353# vccd1 sky130_fd_pr__pfet_01v8_hvt ad=0.26 pd=2.52 as=0.105 ps=1.21 w=1 l=0.15
X251 vssd1 io_in[7] a_1591_13647# vssd1 sky130_fd_pr__nfet_01v8 ad=0.0754 pd=0.81 as=0.1352 ps=1.56 w=0.52 l=0.15
X269 io_out[6] a_2840_26677# vccd1 vccd1 sky130_fd_pr__pfet_01v8_hvt ad=0.135 pd=1.27 as=0.265 ps=2.53 w=1 l=0.15
X272 a_3380_19319# temp1.dac.parallel_cells\[3\].vdac_batch.einvp_batch\[4\].pupd.TE vccd1 vccd1 sky130_fd_pr__pfet_01v8_hvt ad=0.1092 pd=1.36 as=0.32075 ps=1.685 w=0.42 l=0.15
X276 vssd1 _090_.A2 a_4418_16367# vssd1 sky130_fd_pr__nfet_01v8 ad=0.091 pd=0.93 as=0.091 ps=0.93 w=0.65 l=0.15
X277 temp1.dac.parallel_cells\[3\].vdac_batch.einvp_batch\[1\].vref.Z temp1.dac.parallel_cells\[3\].vdac_batch.einvp_batch\[1\].vref.Z a_7656_14191# vssd1 sky130_fd_pr__nfet_01v8 ad=0.1755 pd=1.84 as=0.235625 ps=1.375 w=0.65 l=0.15
X278 a_3421_12559# input7.X vccd1 vccd1 sky130_fd_pr__pfet_01v8_hvt ad=0.1525 pd=1.305 as=0.26 ps=2.52 w=1 l=0.15
X294 _044_.A a_2327_21807# vssd1 vssd1 sky130_fd_pr__nfet_01v8 ad=0.169 pd=1.82 as=0.13165 ps=1.14 w=0.65 l=0.15
X298 vccd1 _085_.A1 a_4443_15529# vccd1 sky130_fd_pr__pfet_01v8_hvt ad=0.135 pd=1.27 as=0.14 ps=1.28 w=1 l=0.15
X302 _065_.A a_2139_10205# vccd1 vccd1 sky130_fd_pr__pfet_01v8_hvt ad=0.26 pd=2.52 as=0.2279 ps=1.74 w=1 l=0.15
X304 del1.delay_chain\[0\].inv2.A _111_.A vssd1 vssd1 sky130_fd_pr__nfet_01v8 ad=0.169 pd=1.82 as=0.169 ps=1.82 w=0.65 l=0.15
X307 vssd1 _066_.A_N a_2095_22657# vssd1 sky130_fd_pr__nfet_01v8 ad=0.1092 pd=1.36 as=0.1092 ps=1.36 w=0.42 l=0.15
X310 a_2777_14237# _109_.A vssd1 vssd1 sky130_fd_pr__nfet_01v8 ad=0.10785 pd=1.36 as=0.1092 ps=1.36 w=0.42 l=0.15
X315 vssd1 temp1.dac.parallel_cells\[2\].vdac_batch.einvp_batch\[3\].vref.TE a_5547_16367# vssd1 sky130_fd_pr__nfet_01v8 ad=0.097 pd=0.975 as=0.1092 ps=1.36 w=0.42 l=0.15
X320 a_2103_11989# _048_.B vccd1 vccd1 sky130_fd_pr__pfet_01v8_hvt ad=0.195 pd=1.39 as=0.3275 ps=1.655 w=1 l=0.15
X321 a_2187_10901# _061_.B1_N vccd1 vccd1 sky130_fd_pr__pfet_01v8_hvt ad=0.1092 pd=1.36 as=0.0714 ps=0.76 w=0.42 l=0.15
X326 vssd1 a_1674_1135# _095_.CLK vssd1 sky130_fd_pr__nfet_01v8 ad=0.1113 pd=1.37 as=0.0588 ps=0.7 w=0.42 l=0.15
X328 vccd1 a_1920_28853# io_out[7] vccd1 sky130_fd_pr__pfet_01v8_hvt ad=0.149 pd=1.325 as=0.135 ps=1.27 w=1 l=0.15
X334 _071_.C a_3512_12559# vssd1 vssd1 sky130_fd_pr__nfet_01v8 ad=0.169 pd=1.82 as=0.169 ps=1.82 w=0.65 l=0.15
X339 a_2927_11092# io_in[5] vccd1 vccd1 sky130_fd_pr__pfet_01v8_hvt ad=0.2054 pd=2.1 as=0.11455 ps=1.08 w=0.79 l=0.15
X344 vssd1 _051_.B1 a_2229_9839# vssd1 sky130_fd_pr__nfet_01v8 ad=0.1013 pd=0.99 as=0.0504 ps=0.66 w=0.42 l=0.15
X347 vccd1 temp1.dac.parallel_cells\[3\].vdac_batch.einvp_batch\[4\].pupd.TE a_3063_18543# vccd1 sky130_fd_pr__pfet_01v8_hvt ad=0.32075 pd=1.685 as=0.1092 ps=1.36 w=0.42 l=0.15
X353 clkbuf_1_1__f_io_in[0].A a_1766_2223# vssd1 vssd1 sky130_fd_pr__nfet_01v8 ad=0.0588 pd=0.7 as=0.0588 ps=0.7 w=0.42 l=0.15
X364 vccd1 _051_.B1 a_5353_12265# vccd1 sky130_fd_pr__pfet_01v8_hvt ad=0.26 pd=2.52 as=0.105 ps=1.21 w=1 l=0.15
X367 a_3607_20175# temp1.dac.parallel_cells\[3\].vdac_batch.einvp_batch\[1\].vref.Z temp1.dac.parallel_cells\[3\].vdac_batch.einvp_batch\[1\].vref.Z vccd1 sky130_fd_pr__pfet_01v8_hvt ad=0.1825 pd=1.365 as=0.27 ps=2.54 w=1 l=0.15
X370 a_5323_17973# _092_.A vccd1 vccd1 sky130_fd_pr__pfet_01v8_hvt ad=0.265 pd=2.53 as=0.1625 ps=1.325 w=1 l=0.15
X372 vccd1 del2.delay_chain\[1\].inv2.Y del2.delay_chain\[2\].inv2.A vccd1 sky130_fd_pr__pfet_01v8_hvt ad=0.26 pd=2.52 as=0.26 ps=2.52 w=1 l=0.15
X374 clkbuf_1_1__f_io_in[0].A a_1766_2223# vccd1 vccd1 sky130_fd_pr__pfet_01v8_hvt ad=0.14 pd=1.28 as=0.14 ps=1.28 w=1 l=0.15
X375 vssd1 _110_.A a_3065_12021# vssd1 sky130_fd_pr__nfet_01v8 ad=0.101875 pd=0.99 as=0.0567 ps=0.69 w=0.42 l=0.15
X384 _046_.A del2.delay_chain\[3\].inv2.A vccd1 vccd1 sky130_fd_pr__pfet_01v8_hvt ad=0.14 pd=1.28 as=0.14 ps=1.28 w=1 l=0.25
X389 del2.delay_chain\[0\].inv1.A a_2879_9839# vccd1 vccd1 sky130_fd_pr__pfet_01v8_hvt ad=0.2054 pd=2.1 as=0.11455 ps=1.08 w=0.79 l=0.15
X395 vssd1 _090_.A2 a_2852_16373# vssd1 sky130_fd_pr__nfet_01v8 ad=0.122275 pd=1.08 as=0.05355 ps=0.675 w=0.42 l=0.15
X400 _093_.CLK a_1674_2767# vssd1 vssd1 sky130_fd_pr__nfet_01v8 ad=0.0588 pd=0.7 as=0.0588 ps=0.7 w=0.42 l=0.15
X403 vccd1 temp1.dac.parallel_cells\[3\].vdac_batch.einvp_batch\[4\].pupd.TE a_3063_17455# vccd1 sky130_fd_pr__pfet_01v8_hvt ad=0.32075 pd=1.685 as=0.1092 ps=1.36 w=0.42 l=0.15
X407 io_out[0] a_2932_21237# vssd1 vssd1 sky130_fd_pr__nfet_01v8 ad=0.08775 pd=0.92 as=0.17225 ps=1.83 w=0.65 l=0.15
X420 del2.delay_chain\[3\].inv2.A del2.delay_chain\[2\].inv2.Y vccd1 vccd1 sky130_fd_pr__pfet_01v8_hvt ad=0.26 pd=2.52 as=0.26 ps=2.52 w=1 l=0.15
X421 vssd1 temp1.dac.parallel_cells\[0\].vdac_batch.einvp_batch\[0\].pupd.TE a_7931_13967# vssd1 sky130_fd_pr__nfet_01v8 ad=0.097 pd=0.975 as=0.235625 ps=1.375 w=0.65 l=0.15
X423 a_1674_2767# clkbuf_1_1__f_io_in[0].A vssd1 vssd1 sky130_fd_pr__nfet_01v8 ad=0.0588 pd=0.7 as=0.0588 ps=0.7 w=0.42 l=0.15
X426 vccd1 _085_.A2 a_2233_15939# vccd1 sky130_fd_pr__pfet_01v8_hvt ad=0.142225 pd=1.335 as=0.074375 ps=0.815 w=0.42 l=0.15
X431 vssd1 a_2007_11690# _063_.X vssd1 sky130_fd_pr__nfet_01v8 ad=0.0754 pd=0.81 as=0.1352 ps=1.56 w=0.52 l=0.15
X434 a_4931_1501# a_4149_1135# a_4847_1501# vccd1 sky130_fd_pr__pfet_01v8_hvt ad=0.0882 pd=0.84 as=0.0567 ps=0.69 w=0.42 l=0.15
X436 a_9384_16617# a_9135_16367# vccd1 vccd1 sky130_fd_pr__pfet_01v8_hvt ad=0.1825 pd=1.365 as=0.32075 ps=1.685 w=1 l=0.15
X437 _076_.X a_2877_14455# vssd1 vssd1 sky130_fd_pr__nfet_01v8 ad=0.169 pd=1.82 as=0.122275 ps=1.08 w=0.65 l=0.15
R2 temp1.capload\[9\].cap.TE vssd1 sky130_fd_pr__res_generic_po w=0.48 l=0.045
X440 a_1757_3311# a_1591_3311# vssd1 vssd1 sky130_fd_pr__nfet_01v8 ad=0.1092 pd=1.36 as=0.0567 ps=0.69 w=0.42 l=0.15
X444 a_2927_11092# io_in[5] vssd1 vssd1 sky130_fd_pr__nfet_01v8 ad=0.1352 pd=1.56 as=0.0754 ps=0.81 w=0.52 l=0.15
X463 _095_.CLK a_1674_1135# vccd1 vccd1 sky130_fd_pr__pfet_01v8_hvt ad=0.14 pd=1.28 as=0.14 ps=1.28 w=1 l=0.15
X470 vssd1 _069_.A a_2879_9839# vssd1 sky130_fd_pr__nfet_01v8 ad=0.0754 pd=0.81 as=0.1352 ps=1.56 w=0.52 l=0.15
X483 temp1.dac.parallel_cells\[3\].vdac_batch.einvp_batch\[1\].vref.Z temp1.dac.parallel_cells\[3\].vdac_batch.einvp_batch\[1\].vref.Z a_9384_16617# vccd1 sky130_fd_pr__pfet_01v8_hvt ad=0.27 pd=2.54 as=0.1825 ps=1.365 w=1 l=0.15
X489 vccd1 _051_.B1 a_2987_14735# vccd1 sky130_fd_pr__pfet_01v8_hvt ad=0.135 pd=1.27 as=0.135 ps=1.27 w=1 l=0.15
X491 a_8004_16617# a_7755_16367# vccd1 vccd1 sky130_fd_pr__pfet_01v8_hvt ad=0.1825 pd=1.365 as=0.32075 ps=1.685 w=1 l=0.15
X494 temp1.dac.parallel_cells\[3\].vdac_batch.einvp_batch\[1\].vref.TE _090_.A1 a_4418_16367# vssd1 sky130_fd_pr__nfet_01v8 ad=0.091 pd=0.93 as=0.091 ps=0.93 w=0.65 l=0.15
X495 _111_.A a_4558_1653# vssd1 vssd1 sky130_fd_pr__nfet_01v8 ad=0.08775 pd=0.92 as=0.092625 ps=0.935 w=0.65 l=0.15
X496 vssd1 del2.delay_chain\[0\].inv2.A del2.delay_chain\[1\].inv1.A vssd1 sky130_fd_pr__nfet_01v8 ad=0.169 pd=1.82 as=0.169 ps=1.82 w=0.65 l=0.15
R3 temp1.capload\[2\].cap.TE vssd1 sky130_fd_pr__res_generic_po w=0.48 l=0.045
X507 vssd1 a_2835_25236# _114_.A vssd1 sky130_fd_pr__nfet_01v8 ad=0.0754 pd=0.81 as=0.1352 ps=1.56 w=0.52 l=0.15
X516 a_7564_18319# temp1.capload\[9\].cap.TE vssd1 vssd1 sky130_fd_pr__nfet_01v8 ad=0.235625 pd=1.375 as=0.097 ps=0.975 w=0.65 l=0.15
X517 vssd1 temp1.dac.parallel_cells\[2\].vdac_batch.einvp_batch\[3\].vref.TE a_2963_17231# vssd1 sky130_fd_pr__nfet_01v8 ad=0.097 pd=0.975 as=0.235625 ps=1.375 w=0.65 l=0.15
X519 io_out[5] a_2104_26677# vssd1 vssd1 sky130_fd_pr__nfet_01v8 ad=0.08775 pd=0.92 as=0.17225 ps=1.83 w=0.65 l=0.15
X540 vccd1 a_1674_1135# _095_.CLK vccd1 sky130_fd_pr__pfet_01v8_hvt ad=0.14 pd=1.28 as=0.14 ps=1.28 w=1 l=0.15
X544 a_3204_13879# _079_.C vssd1 vssd1 sky130_fd_pr__nfet_01v8 ad=0.1092 pd=1.36 as=0.0567 ps=0.69 w=0.42 l=0.15
X547 _093_.CLK a_1674_2767# vccd1 vccd1 sky130_fd_pr__pfet_01v8_hvt ad=0.14 pd=1.28 as=0.14 ps=1.28 w=1 l=0.15
X559 a_4784_17705# a_4535_17455# vccd1 vccd1 sky130_fd_pr__pfet_01v8_hvt ad=0.1825 pd=1.365 as=0.32075 ps=1.685 w=1 l=0.15
X565 a_4445_11587# _071_.C a_4350_11587# vccd1 sky130_fd_pr__pfet_01v8_hvt ad=0.0441 pd=0.63 as=0.06825 ps=0.745 w=0.42 l=0.15
X573 a_2455_1679# a_1591_1685# a_2198_1653# vccd1 sky130_fd_pr__pfet_01v8_hvt ad=0.0567 pd=0.69 as=0.1095 ps=1.075 w=0.42 l=0.15
X574 clkbuf_1_1__f_io_in[0].A a_1766_2223# vccd1 vccd1 sky130_fd_pr__pfet_01v8_hvt ad=0.14 pd=1.28 as=0.14 ps=1.28 w=1 l=0.15
X575 a_2581_3311# a_1591_3311# a_2455_3677# vssd1 sky130_fd_pr__nfet_01v8 ad=0.066 pd=0.745 as=0.0684 ps=0.74 w=0.36 l=0.15
X589 vssd1 a_2198_1653# a_2156_2057# vssd1 sky130_fd_pr__nfet_01v8 ad=0.12095 pd=1.085 as=0.0696 ps=0.765 w=0.42 l=0.15
X596 _048_.B a_3983_18543# vccd1 vccd1 sky130_fd_pr__pfet_01v8_hvt ad=0.135 pd=1.27 as=0.26 ps=2.52 w=1 l=0.15
X599 a_2238_13763# _060_.B vssd1 vssd1 sky130_fd_pr__nfet_01v8 ad=0.0567 pd=0.69 as=0.0567 ps=0.69 w=0.42 l=0.15
X601 vccd1 _095_.CLK a_3983_1135# vccd1 sky130_fd_pr__pfet_01v8_hvt ad=0.0864 pd=0.91 as=0.1664 ps=1.8 w=0.64 l=0.15
X607 clkbuf_1_1__f_io_in[0].A a_1766_2223# vccd1 vccd1 sky130_fd_pr__pfet_01v8_hvt ad=0.14 pd=1.28 as=0.14 ps=1.28 w=1 l=0.15
X611 vccd1 a_3983_18543# _048_.B vccd1 sky130_fd_pr__pfet_01v8_hvt ad=0.1425 pd=1.285 as=0.135 ps=1.27 w=1 l=0.15
X612 temp1.dac.parallel_cells\[3\].vdac_batch.einvp_batch\[1\].vref.Z temp1.dac.parallel_cells\[2\].vdac_batch.einvp_batch\[1\].pupd.A a_4784_17705# vccd1 sky130_fd_pr__pfet_01v8_hvt ad=0.27 pd=2.54 as=0.1825 ps=1.365 w=1 l=0.15
X616 _081_.X a_2141_14851# vssd1 vssd1 sky130_fd_pr__nfet_01v8 ad=0.169 pd=1.82 as=0.122275 ps=1.08 w=0.65 l=0.15
X618 vssd1 a_1766_2223# clkbuf_1_1__f_io_in[0].A vssd1 sky130_fd_pr__nfet_01v8 ad=0.0588 pd=0.7 as=0.0588 ps=0.7 w=0.42 l=0.15
X627 vssd1 _046_.B _113_.A vssd1 sky130_fd_pr__nfet_01v8 ad=0.169 pd=1.82 as=0.08775 ps=0.92 w=0.65 l=0.15
X628 a_8299_18319# temp1.dcdc.Z temp1.capload\[1\].cap.Z vssd1 sky130_fd_pr__nfet_01v8 ad=0.235625 pd=1.375 as=0.1755 ps=1.84 w=0.65 l=0.15
X631 vssd1 a_4215_11703# _075_.A1 vssd1 sky130_fd_pr__nfet_01v8 ad=0.10025 pd=0.985 as=0.17875 ps=1.85 w=0.65 l=0.15
X641 vccd1 a_1674_2767# _093_.CLK vccd1 sky130_fd_pr__pfet_01v8_hvt ad=0.14 pd=1.28 as=0.14 ps=1.28 w=1 l=0.15
X651 a_2198_3423# a_2030_3677# vssd1 vssd1 sky130_fd_pr__nfet_01v8 ad=0.0989 pd=0.995 as=0.12095 ps=1.085 w=0.64 l=0.15
X654 a_2932_21237# _109_.A vssd1 vssd1 sky130_fd_pr__nfet_01v8 ad=0.1092 pd=1.36 as=0.097 ps=0.975 w=0.42 l=0.15
X655 vssd1 _109_.A temp1.dac.vdac_single.einvp_batch\[0\].pupd.TE vssd1 sky130_fd_pr__nfet_01v8 ad=0.08775 pd=0.92 as=0.08775 ps=0.92 w=0.65 l=0.15
X656 a_3689_1685# a_3523_1685# vssd1 vssd1 sky130_fd_pr__nfet_01v8 ad=0.1092 pd=1.36 as=0.0567 ps=0.69 w=0.42 l=0.15
X662 temp1.dac.parallel_cells\[1\].vdac_batch.einvp_batch\[0\].pupd.TE a_5271_13647# vccd1 vccd1 sky130_fd_pr__pfet_01v8_hvt ad=0.2054 pd=2.1 as=0.11455 ps=1.08 w=0.79 l=0.15
X669 vccd1 temp1.dac.parallel_cells\[2\].vdac_batch.einvp_batch\[3\].vref.TE a_4535_15823# vccd1 sky130_fd_pr__pfet_01v8_hvt ad=0.32075 pd=1.685 as=0.1092 ps=1.36 w=0.42 l=0.15
X684 vccd1 a_2623_1653# a_2539_1679# vccd1 sky130_fd_pr__pfet_01v8_hvt ad=0.1113 pd=1.37 as=0.0882 ps=0.84 w=0.42 l=0.15
X690 a_7428_17607# temp1.capload\[5\].cap.TE vssd1 vssd1 sky130_fd_pr__nfet_01v8 ad=0.1092 pd=1.36 as=0.097 ps=0.975 w=0.42 l=0.15
R4 temp1.capload\[7\].cap_16.HI vccd1 sky130_fd_pr__res_generic_po w=0.48 l=0.045
X691 a_2228_15095# a_2041_14735# a_2141_14851# vssd1 sky130_fd_pr__nfet_01v8 ad=0.0441 pd=0.63 as=0.107825 ps=1.36 w=0.42 l=0.15
X709 temp1.dac.parallel_cells\[3\].vdac_batch.einvp_batch\[1\].vref.TE _090_.A1 a_4418_16367# vssd1 sky130_fd_pr__nfet_01v8 ad=0.091 pd=0.93 as=0.091 ps=0.93 w=0.65 l=0.15
X710 a_6600_15431# temp1.capload\[0\].cap_9.LO vccd1 vccd1 sky130_fd_pr__pfet_01v8_hvt ad=0.1092 pd=1.36 as=0.32075 ps=1.685 w=0.42 l=0.15
X711 vccd1 _075_.A2 a_2877_14455# vccd1 sky130_fd_pr__pfet_01v8_hvt ad=0.142225 pd=1.335 as=0.074375 ps=0.815 w=0.42 l=0.15
X712 vccd1 a_1766_2223# clkbuf_1_1__f_io_in[0].A vccd1 sky130_fd_pr__pfet_01v8_hvt ad=0.1375 pd=1.275 as=0.14 ps=1.28 w=1 l=0.15
X720 vccd1 _065_.A a_2971_10383# vccd1 sky130_fd_pr__pfet_01v8_hvt ad=0.11455 pd=1.08 as=0.2054 ps=2.1 w=0.79 l=0.15
X724 vssd1 _093_.CLK a_1591_1685# vssd1 sky130_fd_pr__nfet_01v8 ad=0.0567 pd=0.69 as=0.1092 ps=1.36 w=0.42 l=0.15
X730 vssd1 a_1674_2767# _093_.CLK vssd1 sky130_fd_pr__nfet_01v8 ad=0.0588 pd=0.7 as=0.0588 ps=0.7 w=0.42 l=0.15
X732 a_7084_15823# a_6835_15823# vccd1 vccd1 sky130_fd_pr__pfet_01v8_hvt ad=0.1825 pd=1.365 as=0.32075 ps=1.685 w=1 l=0.15
X736 temp1.capload\[9\].cap.Z temp1.dcdc.Z a_7564_18319# vssd1 sky130_fd_pr__nfet_01v8 ad=0.1755 pd=1.84 as=0.235625 ps=1.375 w=0.65 l=0.15
X741 a_2044_18319# temp1.dac.parallel_cells\[3\].vdac_batch.einvp_batch\[1\].vref.TE vssd1 vssd1 sky130_fd_pr__nfet_01v8 ad=0.235625 pd=1.375 as=0.097 ps=0.975 w=0.65 l=0.15
X742 vccd1 _051_.B1 a_4985_11177# vccd1 sky130_fd_pr__pfet_01v8_hvt ad=0.26 pd=2.52 as=0.105 ps=1.21 w=1 l=0.15
X747 a_7379_17705# temp1.dcdc.Z temp1.capload\[5\].cap.Z vccd1 sky130_fd_pr__pfet_01v8_hvt ad=0.1825 pd=1.365 as=0.27 ps=2.54 w=1 l=0.15
X750 vssd1 _095_.CLK a_3983_1135# vssd1 sky130_fd_pr__nfet_01v8 ad=0.0567 pd=0.69 as=0.1092 ps=1.36 w=0.42 l=0.15
X752 temp1.dac.parallel_cells\[3\].vdac_batch.einvp_batch\[1\].vref.Z temp1.dac.parallel_cells\[3\].vdac_batch.einvp_batch\[4\].pupd.A a_1932_14441# vccd1 sky130_fd_pr__pfet_01v8_hvt ad=0.27 pd=2.54 as=0.1825 ps=1.365 w=1 l=0.15
X753 vccd1 _048_.B a_2132_9295# vccd1 sky130_fd_pr__pfet_01v8_hvt ad=0.3275 pd=1.655 as=0.195 ps=1.39 w=1 l=0.15
X755 vssd1 clkbuf_1_1__f_io_in[0].A a_1674_2767# vssd1 sky130_fd_pr__nfet_01v8 ad=0.0588 pd=0.7 as=0.0588 ps=0.7 w=0.42 l=0.15
X762 vssd1 a_2932_21237# io_out[0] vssd1 sky130_fd_pr__nfet_01v8 ad=0.097 pd=0.975 as=0.08775 ps=0.92 w=0.65 l=0.15
X763 vssd1 _075_.A2 a_3036_14197# vssd1 sky130_fd_pr__nfet_01v8 ad=0.122275 pd=1.08 as=0.05355 ps=0.675 w=0.42 l=0.15
X764 vssd1 a_4031_13866# input6.X vssd1 sky130_fd_pr__nfet_01v8 ad=0.0754 pd=0.81 as=0.1352 ps=1.56 w=0.52 l=0.15
X767 temp1.dac.parallel_cells\[3\].vdac_batch.einvp_batch\[1\].vref.Z temp1.dac.vdac_single.einvp_batch\[0\].pupd_20.HI a_20996_16143# vssd1 sky130_fd_pr__nfet_01v8 ad=0.1755 pd=1.84 as=0.235625 ps=1.375 w=0.65 l=0.15
X770 vccd1 _048_.B a_3512_12559# vccd1 sky130_fd_pr__pfet_01v8_hvt ad=0.3275 pd=1.655 as=0.195 ps=1.39 w=1 l=0.15
X777 a_2963_17231# temp1.dac.parallel_cells\[3\].vdac_batch.einvp_batch\[1\].vref.Z temp1.dac.parallel_cells\[3\].vdac_batch.einvp_batch\[1\].vref.Z vssd1 sky130_fd_pr__nfet_01v8 ad=0.235625 pd=1.375 as=0.1755 ps=1.84 w=0.65 l=0.15
X778 temp1.capload\[6\].cap.Z temp1.dcdc.Z a_7084_15823# vccd1 sky130_fd_pr__pfet_01v8_hvt ad=0.27 pd=2.54 as=0.1825 ps=1.365 w=1 l=0.15
X787 vssd1 del2.delay_chain\[3\].inv2.A a_3028_22691# vssd1 sky130_fd_pr__nfet_01v8 ad=0.14575 pd=1.63 as=0.05775 ps=0.76 w=0.55 l=0.15
X788 vssd1 temp1.dac.vdac_single.einvp_batch\[0\].vref_19.LO a_9135_16367# vssd1 sky130_fd_pr__nfet_01v8 ad=0.097 pd=0.975 as=0.1092 ps=1.36 w=0.42 l=0.15
X791 vccd1 a_2593_16413# a_2693_16631# vccd1 sky130_fd_pr__pfet_01v8_hvt ad=0.0567 pd=0.69 as=0.1085 ps=1.36 w=0.42 l=0.15
X794 vccd1 a_2927_11092# _057_.A1 vccd1 sky130_fd_pr__pfet_01v8_hvt ad=0.11455 pd=1.08 as=0.2054 ps=2.1 w=0.79 l=0.15
X798 vssd1 temp1.dac.parallel_cells\[3\].vdac_batch.einvp_batch\[4\].pupd.TE a_3063_18543# vssd1 sky130_fd_pr__nfet_01v8 ad=0.097 pd=0.975 as=0.1092 ps=1.36 w=0.42 l=0.15
X802 vccd1 temp1.dac.vdac_single.einvp_batch\[0\].pupd.TE a_20819_15823# vccd1 sky130_fd_pr__pfet_01v8_hvt ad=0.32075 pd=1.685 as=0.1092 ps=1.36 w=0.42 l=0.15
X810 vccd1 input6.X a_2406_12265# vccd1 sky130_fd_pr__pfet_01v8_hvt ad=0.26 pd=2.52 as=0.1525 ps=1.305 w=1 l=0.15
X824 vccd1 a_1919_22325# _067_.A vccd1 sky130_fd_pr__pfet_01v8_hvt ad=0.2279 pd=1.74 as=0.26 ps=2.52 w=1 l=0.15
X826 a_5724_15279# temp1.dac.parallel_cells\[1\].vdac_batch.einvp_batch\[0\].pupd.TE vssd1 vssd1 sky130_fd_pr__nfet_01v8 ad=0.235625 pd=1.375 as=0.097 ps=0.975 w=0.65 l=0.15
X832 vccd1 _111_.A _046_.B vccd1 sky130_fd_pr__pfet_01v8_hvt ad=0.26 pd=2.52 as=0.135 ps=1.27 w=1 l=0.15
X833 _048_.B _111_.A vccd1 vccd1 sky130_fd_pr__pfet_01v8_hvt ad=0.135 pd=1.27 as=0.1425 ps=1.285 w=1 l=0.15
X836 a_8348_18231# temp1.capload\[1\].cap_10.LO vccd1 vccd1 sky130_fd_pr__pfet_01v8_hvt ad=0.1092 pd=1.36 as=0.32075 ps=1.685 w=0.42 l=0.15
X839 io_out[1] a_1644_21781# vccd1 vccd1 sky130_fd_pr__pfet_01v8_hvt ad=0.135 pd=1.27 as=0.265 ps=2.53 w=1 l=0.15
X846 a_2104_26677# _114_.A vssd1 vssd1 sky130_fd_pr__nfet_01v8 ad=0.1092 pd=1.36 as=0.097 ps=0.975 w=0.42 l=0.15
X847 vssd1 a_5323_17973# temp1.dac.parallel_cells\[3\].vdac_batch.einvp_batch\[4\].pupd.TE vssd1 sky130_fd_pr__nfet_01v8 ad=0.06825 pd=0.745 as=0.0567 ps=0.69 w=0.42 l=0.15
X857 a_1674_2767# clkbuf_1_1__f_io_in[0].A vssd1 vssd1 sky130_fd_pr__nfet_01v8 ad=0.0588 pd=0.7 as=0.1113 ps=1.37 w=0.42 l=0.15
X866 a_4988_14441# _110_.A vccd1 vccd1 sky130_fd_pr__pfet_01v8_hvt ad=0.0567 pd=0.69 as=0.14825 ps=1.34 w=0.42 l=0.15
X868 vccd1 _069_.A a_2879_9839# vccd1 sky130_fd_pr__pfet_01v8_hvt ad=0.11455 pd=1.08 as=0.2054 ps=2.1 w=0.79 l=0.15
X875 a_4973_1135# a_3983_1135# a_4847_1501# vssd1 sky130_fd_pr__nfet_01v8 ad=0.066 pd=0.745 as=0.0684 ps=0.74 w=0.36 l=0.15
X877 vccd1 del2.delay_chain\[3\].inv2.A _046_.A vccd1 sky130_fd_pr__pfet_01v8_hvt ad=0.265 pd=2.53 as=0.14 ps=1.28 w=1 l=0.25
X885 vccd1 a_2455_3677# a_2623_3579# vccd1 sky130_fd_pr__pfet_01v8_hvt ad=0.135 pd=1.27 as=0.27 ps=2.54 w=1 l=0.15
X886 vccd1 _048_.A a_3983_20969# vccd1 sky130_fd_pr__pfet_01v8_hvt ad=0.135 pd=1.27 as=0.135 ps=1.27 w=1 l=0.15
X891 vssd1 _110_.A a_5271_14743# vssd1 sky130_fd_pr__nfet_01v8 ad=0.097 pd=0.975 as=0.1092 ps=1.36 w=0.42 l=0.15
X900 _095_.CLK a_1674_1135# vccd1 vccd1 sky130_fd_pr__pfet_01v8_hvt ad=0.14 pd=1.28 as=0.14 ps=1.28 w=1 l=0.15
X903 a_2132_9295# _066_.A_N a_2041_9295# vccd1 sky130_fd_pr__pfet_01v8_hvt ad=0.195 pd=1.39 as=0.1525 ps=1.305 w=1 l=0.15
X908 a_2870_22691# del2.delay_chain\[3\].inv2.A vssd1 vssd1 sky130_fd_pr__nfet_01v8 ad=0.05775 pd=0.76 as=0.14575 ps=1.63 w=0.55 l=0.15
X909 vssd1 a_2238_13763# _090_.A2 vssd1 sky130_fd_pr__nfet_01v8 ad=0.18525 pd=1.87 as=0.08775 ps=0.92 w=0.65 l=0.15
X910 a_2229_9839# a_1959_10205# a_2139_10205# vssd1 sky130_fd_pr__nfet_01v8 ad=0.0504 pd=0.66 as=0.1092 ps=1.36 w=0.42 l=0.15
X916 a_3791_17231# temp1.dac.parallel_cells\[3\].vdac_batch.einvp_batch\[1\].vref.Z temp1.dac.parallel_cells\[3\].vdac_batch.einvp_batch\[1\].vref.Z vssd1 sky130_fd_pr__nfet_01v8 ad=0.235625 pd=1.375 as=0.1755 ps=1.84 w=0.65 l=0.15
X917 a_4712_16143# temp1.dac.parallel_cells\[2\].vdac_batch.einvp_batch\[3\].vref.TE vssd1 vssd1 sky130_fd_pr__nfet_01v8 ad=0.235625 pd=1.375 as=0.097 ps=0.975 w=0.65 l=0.15
X918 a_4307_12167# a_4579_11995# a_4537_12265# vccd1 sky130_fd_pr__pfet_01v8_hvt ad=0.1092 pd=1.36 as=0.0441 ps=0.63 w=0.42 l=0.15
X923 a_2594_19631# del1.delay_chain\[3\].inv2.A vssd1 vssd1 sky130_fd_pr__nfet_01v8 ad=0.05775 pd=0.76 as=0.14575 ps=1.63 w=0.55 l=0.15
X924 vccd1 temp1.dac.parallel_cells\[3\].vdac_batch.einvp_batch\[1\].vref.TE a_1867_17455# vccd1 sky130_fd_pr__pfet_01v8_hvt ad=0.32075 pd=1.685 as=0.1092 ps=1.36 w=0.42 l=0.15
R5 temp1.dac.vdac_single.einvp_batch\[0\].vref_19.LO vssd1 sky130_fd_pr__res_generic_po w=0.48 l=0.045
X927 vssd1 a_2927_11092# _057_.A1 vssd1 sky130_fd_pr__nfet_01v8 ad=0.0754 pd=0.81 as=0.1352 ps=1.56 w=0.52 l=0.15
X935 vssd1 a_1674_1135# _095_.CLK vssd1 sky130_fd_pr__nfet_01v8 ad=0.0588 pd=0.7 as=0.0588 ps=0.7 w=0.42 l=0.15
X939 vssd1 temp1.dac.parallel_cells\[2\].vdac_batch.einvp_batch\[1\].pupd.TE a_4535_17455# vssd1 sky130_fd_pr__nfet_01v8 ad=0.097 pd=0.975 as=0.1092 ps=1.36 w=0.42 l=0.15
X940 vssd1 _060_.B a_4627_14191# vssd1 sky130_fd_pr__nfet_01v8 ad=0.10025 pd=0.985 as=0.1092 ps=1.36 w=0.42 l=0.15
X945 _072_.C_N a_2132_9295# vssd1 vssd1 sky130_fd_pr__nfet_01v8 ad=0.169 pd=1.82 as=0.169 ps=1.82 w=0.65 l=0.15
X950 vccd1 _115_.A _051_.A2 vccd1 sky130_fd_pr__pfet_01v8_hvt ad=0.26 pd=2.52 as=0.135 ps=1.27 w=1 l=0.15
X952 a_4590_1247# a_4422_1501# vssd1 vssd1 sky130_fd_pr__nfet_01v8 ad=0.0989 pd=0.995 as=0.12095 ps=1.085 w=0.64 l=0.15
X956 vccd1 io_in[1] a_1591_3855# vccd1 sky130_fd_pr__pfet_01v8_hvt ad=0.11455 pd=1.08 as=0.2054 ps=2.1 w=0.79 l=0.15
X957 vccd1 _051_.A2 a_3615_21263# vccd1 sky130_fd_pr__pfet_01v8_hvt ad=0.1475 pd=1.295 as=0.265 ps=2.53 w=1 l=0.15
X965 _046_.A del2.delay_chain\[3\].inv2.A vccd1 vccd1 sky130_fd_pr__pfet_01v8_hvt ad=0.14 pd=1.28 as=0.265 ps=2.53 w=1 l=0.25
X966 a_4159_19087# _051_.Y temp1.dcdc.Z vccd1 sky130_fd_pr__pfet_01v8_hvt ad=0.1825 pd=1.365 as=0.27 ps=2.54 w=1 l=0.15
X967 a_4618_15055# _080_.A2 vssd1 vssd1 sky130_fd_pr__nfet_01v8 ad=0.095875 pd=0.945 as=0.17225 ps=1.83 w=0.65 l=0.15
X971 clkbuf_1_1__f_io_in[0].A a_1766_2223# vssd1 vssd1 sky130_fd_pr__nfet_01v8 ad=0.0588 pd=0.7 as=0.0588 ps=0.7 w=0.42 l=0.15
X977 a_3065_12021# _072_.C_N vssd1 vssd1 sky130_fd_pr__nfet_01v8 ad=0.0567 pd=0.69 as=0.0567 ps=0.69 w=0.42 l=0.15
X989 _093_.CLK a_1674_2767# vccd1 vccd1 sky130_fd_pr__pfet_01v8_hvt ad=0.14 pd=1.28 as=0.14 ps=1.28 w=1 l=0.15
X992 a_2104_25045# _113_.A vccd1 vccd1 sky130_fd_pr__pfet_01v8_hvt ad=0.1664 pd=1.8 as=0.149 ps=1.325 w=0.64 l=0.15
X996 vssd1 temp1.dcdc.Z temp1.inv2.A vssd1 sky130_fd_pr__nfet_01v8 ad=0.169 pd=1.82 as=0.169 ps=1.82 w=0.65 l=0.15
X997 a_1715_8779# _048_.A vccd1 vccd1 sky130_fd_pr__pfet_01v8_hvt ad=0.0567 pd=0.69 as=0.1176 ps=1.4 w=0.42 l=0.15
X1001 a_4776_14165# a_4627_14191# a_5072_14441# vccd1 sky130_fd_pr__pfet_01v8_hvt ad=0.1092 pd=1.36 as=0.0567 ps=0.69 w=0.42 l=0.15
X1006 a_2139_10205# a_1959_10205# vccd1 vccd1 sky130_fd_pr__pfet_01v8_hvt ad=0.0609 pd=0.71 as=0.0714 ps=0.76 w=0.42 l=0.15
X1008 vccd1 temp1.capload\[7\].cap.TE a_6559_14735# vccd1 sky130_fd_pr__pfet_01v8_hvt ad=0.32075 pd=1.685 as=0.1092 ps=1.36 w=0.42 l=0.15
X1009 a_2030_3677# a_1757_3311# a_1945_3311# vccd1 sky130_fd_pr__pfet_01v8_hvt ad=0.06825 pd=0.745 as=0.05775 ps=0.695 w=0.42 l=0.15
X1012 _048_.B a_3983_18543# a_4171_18543# vssd1 sky130_fd_pr__nfet_01v8 ad=0.08775 pd=0.92 as=0.08775 ps=0.92 w=0.65 l=0.15
X1013 _085_.A1 a_4263_13109# vssd1 vssd1 sky130_fd_pr__nfet_01v8 ad=0.17875 pd=1.85 as=0.10025 ps=0.985 w=0.65 l=0.15
X1034 vssd1 del1.delay_chain\[2\].inv2.A del1.delay_chain\[2\].inv2.Y vssd1 sky130_fd_pr__nfet_01v8 ad=0.169 pd=1.82 as=0.169 ps=1.82 w=0.65 l=0.15
X1040 clkbuf_1_1__f_io_in[0].A a_1766_2223# vccd1 vccd1 sky130_fd_pr__pfet_01v8_hvt ad=0.14 pd=1.28 as=0.1375 ps=1.275 w=1 l=0.15