* PEX produced on Sun Apr 16 02:20:49 PM CEST 2023 using /foss/tools/iic-osic/iic-pex.sh with m=1 and s=1
* NGSPICE file created from hpretl_tt03_temperature_sensor.ext - technology: sky130A

.subckt hpretl_tt03_temperature_sensor io_in[1] io_in[2] io_in[3] io_in[4] io_in[5]
+ io_in[6] io_in[7] io_out[0] io_out[1] io_out[2] io_out[3] io_out[4] io_out[5] io_out[6]
+ io_out[7] io_in[0] vccd1 vssd1
X7 vssd1 io_in[5] a_1591_12015# vssd1 sky130_fd_pr__nfet_01v8 ad=0.0754 pd=0.81 as=0.1352 ps=1.56 w=0.52 l=0.15
X13 vssd1 a_3971_17973# _43_.X vssd1 sky130_fd_pr__nfet_01v8 ad=0.08775 pd=0.92 as=0.08775 ps=0.92 w=0.65 l=0.15
X20 del1.delay_chain\[3\].inv2.A del1.delay_chain\[2\].inv2.Y vccd1 vccd1 sky130_fd_pr__pfet_01v8_hvt ad=0.26 pd=2.52 as=0.26 ps=2.52 w=1 l=0.15
X26 temp1.dac.parallel_cells\[3\].vdac_batch.einvp_batch\[5\].vref.Z temp1.dac.parallel_cells\[3\].vdac_batch.einvp_batch\[5\].vref.Z a_1840_6031# vccd1 sky130_fd_pr__pfet_01v8_hvt ad=0.27 pd=2.54 as=0.1825 ps=1.365 w=1 l=0.15
X27 a_4051_2197# a_4219_2197# vccd1 vccd1 sky130_fd_pr__pfet_01v8_hvt ad=0.27 pd=2.54 as=0.135 ps=1.27 w=1 l=0.15
X35 vssd1 _63_.A1 a_6567_16143# vssd1 sky130_fd_pr__nfet_01v8 ad=0.08775 pd=0.92 as=0.08775 ps=0.92 w=0.65 l=0.15
X38 temp1.dac.parallel_cells\[3\].vdac_batch.einvp_batch\[5\].vref.Z _63_.A1 a_5540_10927# vssd1 sky130_fd_pr__nfet_01v8 ad=0.1755 pd=1.84 as=0.235625 ps=1.375 w=0.65 l=0.15
R0 temp1.capload\[3\].cap_11.LO vssd1 sky130_fd_pr__res_generic_po w=0.48 l=0.045
X49 a_7331_15823# _63_.A1 vccd1 vccd1 sky130_fd_pr__pfet_01v8_hvt ad=0.135 pd=1.27 as=0.16 ps=1.32 w=1 l=0.15
X50 a_1827_4373# a_2118_4673# a_2069_4765# vccd1 sky130_fd_pr__pfet_01v8_hvt ad=0.0567 pd=0.69 as=0.0882 ps=0.84 w=0.42 l=0.15
X52 a_2686_1679# clkbuf_0_io_in[0].X vssd1 vssd1 sky130_fd_pr__nfet_01v8 ad=0.0588 pd=0.7 as=0.1113 ps=1.37 w=0.42 l=0.15
X53 a_6998_1501# a_6559_1135# a_6913_1135# vssd1 sky130_fd_pr__nfet_01v8 ad=0.0621 pd=0.705 as=0.0813 ps=0.83 w=0.36 l=0.15
X55 vccd1 temp1.inv2.A _91_.A vccd1 sky130_fd_pr__pfet_01v8_hvt ad=0.26 pd=2.52 as=0.26 ps=2.52 w=1 l=0.15
R1 vccd1 temp1.capload\[4\].cap_12.HI sky130_fd_pr__res_generic_po w=0.48 l=0.045
X61 _63_.A1 _43_.X a_9135_14191# vssd1 sky130_fd_pr__nfet_01v8 ad=0.08775 pd=0.92 as=0.08775 ps=0.92 w=0.65 l=0.15
X66 vccd1 io_in[7] a_1591_15279# vccd1 sky130_fd_pr__pfet_01v8_hvt ad=0.11455 pd=1.08 as=0.2054 ps=2.1 w=0.79 l=0.15
X70 vccd1 _59_.A2 _59_.B1 vccd1 sky130_fd_pr__pfet_01v8_hvt ad=0.135 pd=1.27 as=0.135 ps=1.27 w=1 l=0.15
X71 _62_.Y _59_.A2 a_7331_15823# vccd1 sky130_fd_pr__pfet_01v8_hvt ad=0.135 pd=1.27 as=0.135 ps=1.27 w=1 l=0.15
X76 a_1840_6031# a_1591_6031# vccd1 vccd1 sky130_fd_pr__pfet_01v8_hvt ad=0.1825 pd=1.365 as=0.32075 ps=1.685 w=1 l=0.15
X78 temp1.dac.parallel_cells\[3\].vdac_batch.einvp_batch\[5\].vref.Z temp1.dac.parallel_cells\[3\].vdac_batch.einvp_batch\[0\].pupd.A a_1768_7663# vssd1 sky130_fd_pr__nfet_01v8 ad=0.1755 pd=1.84 as=0.235625 ps=1.375 w=0.65 l=0.15
X84 a_4503_2197# _74_.CLK vssd1 vssd1 sky130_fd_pr__nfet_01v8 ad=0.1092 pd=1.36 as=0.0567 ps=0.69 w=0.42 l=0.15
X91 _59_.B1 _43_.X vccd1 vccd1 sky130_fd_pr__pfet_01v8_hvt ad=0.135 pd=1.27 as=0.135 ps=1.27 w=1 l=0.15
X92 a_1827_2197# a_2111_2197# a_2046_2223# vssd1 sky130_fd_pr__nfet_01v8 ad=0.0684 pd=0.74 as=0.066 ps=0.745 w=0.36 l=0.15
X98 a_5520_21263# a_5271_21263# vccd1 vccd1 sky130_fd_pr__pfet_01v8_hvt ad=0.1825 pd=1.365 as=0.32075 ps=1.685 w=1 l=0.15
X101 _35_.Y _69_.A vccd1 vccd1 sky130_fd_pr__pfet_01v8_hvt ad=0.135 pd=1.27 as=0.26 ps=2.52 w=1 l=0.15
X102 a_4337_1135# _41_.A vccd1 vccd1 sky130_fd_pr__pfet_01v8_hvt ad=0.05775 pd=0.695 as=0.1092 ps=1.36 w=0.42 l=0.15
X106 vccd1 _59_.A1 a_5459_12559# vccd1 sky130_fd_pr__pfet_01v8_hvt ad=0.27 pd=2.54 as=0.105 ps=1.21 w=1 l=0.15
X109 vccd1 a_2686_1679# _76_.CLK vccd1 sky130_fd_pr__pfet_01v8_hvt ad=0.14 pd=1.28 as=0.14 ps=1.28 w=1 l=0.15
X113 a_5179_12879# _59_.A1 vssd1 vssd1 sky130_fd_pr__nfet_01v8 ad=0.169 pd=1.82 as=0.08775 ps=0.92 w=0.65 l=0.15
X114 _38_.A1 a_1591_4943# vccd1 vccd1 sky130_fd_pr__pfet_01v8_hvt ad=0.135 pd=1.27 as=0.1625 ps=1.325 w=1 l=0.15
X122 _74_.CLK a_1753_1109# vccd1 vccd1 sky130_fd_pr__pfet_01v8_hvt ad=0.14 pd=1.28 as=0.14 ps=1.28 w=1 l=0.15
X123 vssd1 a_2318_3285# a_2247_3311# vssd1 sky130_fd_pr__nfet_01v8 ad=0.12095 pd=1.085 as=0.0989 ps=0.995 w=0.64 l=0.15
X129 temp1.capload\[4\].cap.Z temp1.capload\[0\].cap.A a_4160_20719# vssd1 sky130_fd_pr__nfet_01v8 ad=0.1755 pd=1.84 as=0.235625 ps=1.375 w=0.65 l=0.15
X134 a_4841_16143# _58_.X a_4743_15823# vssd1 sky130_fd_pr__nfet_01v8 ad=0.099125 pd=0.955 as=0.2015 ps=1.92 w=0.65 l=0.15
X136 vssd1 a_1753_1109# _74_.CLK vssd1 sky130_fd_pr__nfet_01v8 ad=0.05775 pd=0.695 as=0.0588 ps=0.7 w=0.42 l=0.15
X138 vccd1 _59_.A2 _59_.B1 vccd1 sky130_fd_pr__pfet_01v8_hvt ad=0.135 pd=1.27 as=0.135 ps=1.27 w=1 l=0.15
R2 vssd1 temp1.capload\[7\].cap_15.LO sky130_fd_pr__res_generic_po w=0.48 l=0.045
R3 vccd1 temp1.capload\[8\].cap_16.HI sky130_fd_pr__res_generic_po w=0.48 l=0.045
X144 vccd1 _69_.A _69_.Y vccd1 sky130_fd_pr__pfet_01v8_hvt ad=0.26 pd=2.52 as=0.135 ps=1.27 w=1 l=0.15
X145 a_2557_8751# _59_.A2 vssd1 vssd1 sky130_fd_pr__nfet_01v8 ad=0.08775 pd=0.92 as=0.08775 ps=0.92 w=0.65 l=0.15
X149 temp1.dac.parallel_cells\[3\].vdac_batch.einvp_batch\[5\].vref.Z temp1.dac.parallel_cells\[3\].vdac_batch.einvp_batch\[5\].vref.Z a_5520_21263# vccd1 sky130_fd_pr__pfet_01v8_hvt ad=0.27 pd=2.54 as=0.1825 ps=1.365 w=1 l=0.15
X153 a_2069_3677# a_1659_3285# vccd1 vccd1 sky130_fd_pr__pfet_01v8_hvt ad=0.0882 pd=0.84 as=0.1113 ps=1.37 w=0.42 l=0.15
X155 a_12253_17231# _43_.X _59_.A1 vssd1 sky130_fd_pr__nfet_01v8 ad=0.08775 pd=0.92 as=0.169 ps=1.82 w=0.65 l=0.15
X160 io_out[3] a_1659_4087# vssd1 vssd1 sky130_fd_pr__nfet_01v8 ad=0.08775 pd=0.92 as=0.169 ps=1.82 w=0.65 l=0.15
X164 _59_.B1 _59_.A2 vccd1 vccd1 sky130_fd_pr__pfet_01v8_hvt ad=0.135 pd=1.27 as=0.135 ps=1.27 w=1 l=0.15
X165 a_3975_16143# temp1.dac.parallel_cells\[3\].vdac_batch.einvp_batch\[5\].vref.Z temp1.dac.parallel_cells\[3\].vdac_batch.einvp_batch\[5\].vref.Z vssd1 sky130_fd_pr__nfet_01v8 ad=0.235625 pd=1.375 as=0.1755 ps=1.84 w=0.65 l=0.15
X166 _69_.A a_3995_18793# vccd1 vccd1 sky130_fd_pr__pfet_01v8_hvt ad=0.135 pd=1.27 as=0.15575 ps=1.355 w=1 l=0.15
X172 a_1591_17455# _43_.X _59_.B1 vssd1 sky130_fd_pr__nfet_01v8 ad=0.247 pd=2.06 as=0.08775 ps=0.92 w=0.65 l=0.15
X175 a_4713_16367# _44_.B_N a_4495_16341# vssd1 sky130_fd_pr__nfet_01v8 ad=0.10075 pd=0.96 as=0.169 ps=1.82 w=0.65 l=0.15
X179 vccd1 a_2962_2767# clkbuf_0_io_in[0].X vccd1 sky130_fd_pr__pfet_01v8_hvt ad=0.14 pd=1.28 as=0.14 ps=1.28 w=1 l=0.15
X180 _34_.B _44_.B_N vssd1 vssd1 sky130_fd_pr__nfet_01v8 ad=0.08775 pd=0.92 as=0.169 ps=1.82 w=0.65 l=0.15
X182 a_7423_1501# a_6725_1135# a_7166_1247# vssd1 sky130_fd_pr__nfet_01v8 ad=0.0684 pd=0.74 as=0.0989 ps=0.995 w=0.36 l=0.15
X186 a_4803_19631# temp1.capload\[0\].cap.A temp1.capload\[8\].cap.Z vssd1 sky130_fd_pr__nfet_01v8 ad=0.235625 pd=1.375 as=0.1755 ps=1.84 w=0.65 l=0.15
X190 vccd1 _54_.X a_11201_16367# vccd1 sky130_fd_pr__pfet_01v8_hvt ad=0.135 pd=1.27 as=0.135 ps=1.27 w=1 l=0.15
X194 _76_.CLK a_2686_1679# vccd1 vccd1 sky130_fd_pr__pfet_01v8_hvt ad=0.14 pd=1.28 as=0.14 ps=1.28 w=1 l=0.15
X195 a_1659_4373# a_1827_4373# vccd1 vccd1 sky130_fd_pr__pfet_01v8_hvt ad=0.27 pd=2.54 as=0.135 ps=1.27 w=1 l=0.15
X202 a_1827_4087# a_2118_3977# a_2069_3855# vccd1 sky130_fd_pr__pfet_01v8_hvt ad=0.0567 pd=0.69 as=0.0882 ps=0.84 w=0.42 l=0.15
X206 vccd1 a_2191_8725# temp1.dac.parallel_cells\[3\].vdac_batch.einvp_batch\[0\].pupd.TE vccd1 sky130_fd_pr__pfet_01v8_hvt ad=0.135 pd=1.27 as=0.135 ps=1.27 w=1 l=0.15
X212 vssd1 _50_.X a_7847_7663# vssd1 sky130_fd_pr__nfet_01v8 ad=0.08775 pd=0.92 as=0.08775 ps=0.92 w=0.65 l=0.15
X213 vccd1 _59_.B1 a_4477_10383# vccd1 sky130_fd_pr__pfet_01v8_hvt ad=0.135 pd=1.27 as=0.135 ps=1.27 w=1 l=0.15
X216 vccd1 a_1753_1109# _74_.CLK vccd1 sky130_fd_pr__pfet_01v8_hvt ad=0.14 pd=1.28 as=0.14 ps=1.28 w=1 l=0.15
X227 _74_.CLK a_1753_1109# vssd1 vssd1 sky130_fd_pr__nfet_01v8 ad=0.0588 pd=0.7 as=0.0588 ps=0.7 w=0.42 l=0.15
X231 a_4477_10383# _50_.X temp1.dac.parallel_cells\[3\].vdac_batch.einvp_batch\[5\].vref.TE vccd1 sky130_fd_pr__pfet_01v8_hvt ad=0.135 pd=1.27 as=0.135 ps=1.27 w=1 l=0.15
X233 vccd1 temp1.capload\[4\].cap_12.LO a_3983_20719# vccd1 sky130_fd_pr__pfet_01v8_hvt ad=0.32075 pd=1.685 as=0.1092 ps=1.36 w=0.42 l=0.15
R4 vssd1 temp1.capload\[0\].cap.TE sky130_fd_pr__res_generic_po w=0.48 l=0.045
X249 _43_.X a_3971_17973# vssd1 vssd1 sky130_fd_pr__nfet_01v8 ad=0.08775 pd=0.92 as=0.08775 ps=0.92 w=0.65 l=0.15
X256 a_1659_3285# a_1827_3285# vccd1 vccd1 sky130_fd_pr__pfet_01v8_hvt ad=0.27 pd=2.54 as=0.135 ps=1.27 w=1 l=0.15
X261 vccd1 a_4961_17143# a_4774_16885# vccd1 sky130_fd_pr__pfet_01v8_hvt ad=0.14075 pd=1.325 as=0.26 ps=2.52 w=1 l=0.15
X265 a_2247_3311# a_2111_3285# a_1827_3285# vccd1 sky130_fd_pr__pfet_01v8_hvt ad=0.1095 pd=1.075 as=0.0567 ps=0.69 w=0.42 l=0.15
X269 a_4961_17143# _38_.B1 vssd1 vssd1 sky130_fd_pr__nfet_01v8 ad=0.1092 pd=1.36 as=0.097 ps=0.975 w=0.42 l=0.15
X271 clkbuf_0_io_in[0].X a_2962_2767# vccd1 vccd1 sky130_fd_pr__pfet_01v8_hvt ad=0.14 pd=1.28 as=0.14 ps=1.28 w=1 l=0.15
X272 vssd1 _63_.B2 a_9135_14191# vssd1 sky130_fd_pr__nfet_01v8 ad=0.08775 pd=0.92 as=0.08775 ps=0.92 w=0.65 l=0.15
X277 a_6692_18231# temp1.capload\[6\].cap.TE vssd1 vssd1 sky130_fd_pr__nfet_01v8 ad=0.1092 pd=1.36 as=0.097 ps=0.975 w=0.42 l=0.15
X279 del2.delay_chain\[3\].inv1.Y del2.delay_chain\[2\].inv2.Y vssd1 vssd1 sky130_fd_pr__nfet_01v8 ad=0.169 pd=1.82 as=0.169 ps=1.82 w=0.65 l=0.15
X284 a_10280_14967# _63_.X vccd1 vccd1 sky130_fd_pr__pfet_01v8_hvt ad=0.1092 pd=1.36 as=0.32075 ps=1.685 w=0.42 l=0.15
X295 del2.delay_chain\[0\].inv1.A a_4995_13647# vssd1 vssd1 sky130_fd_pr__nfet_01v8 ad=0.1352 pd=1.56 as=0.0754 ps=0.81 w=0.52 l=0.15
X296 _76_.CLK a_2686_1679# vssd1 vssd1 sky130_fd_pr__nfet_01v8 ad=0.0588 pd=0.7 as=0.0588 ps=0.7 w=0.42 l=0.15
X297 a_6913_1135# _41_.Y vssd1 vssd1 sky130_fd_pr__nfet_01v8 ad=0.0813 pd=0.83 as=0.1092 ps=1.36 w=0.42 l=0.15
X307 _59_.B1 _59_.A2 vccd1 vccd1 sky130_fd_pr__pfet_01v8_hvt ad=0.135 pd=1.27 as=0.135 ps=1.27 w=1 l=0.15
X310 a_7331_15823# _59_.A2 _62_.Y vccd1 sky130_fd_pr__pfet_01v8_hvt ad=0.135 pd=1.27 as=0.135 ps=1.27 w=1 l=0.15
X311 vssd1 temp1.dac.parallel_cells\[3\].vdac_batch.einvp_batch\[5\].vref.TE a_4259_14735# vssd1 sky130_fd_pr__nfet_01v8 ad=0.097 pd=0.975 as=0.1092 ps=1.36 w=0.42 l=0.15
X325 _62_.Y _63_.B2 a_6649_15823# vccd1 sky130_fd_pr__pfet_01v8_hvt ad=0.135 pd=1.27 as=0.135 ps=1.27 w=1 l=0.15
X330 vssd1 _59_.X a_6835_14735# vssd1 sky130_fd_pr__nfet_01v8 ad=0.097 pd=0.975 as=0.1092 ps=1.36 w=0.42 l=0.15
X332 vccd1 _43_.X _59_.B1 vccd1 sky130_fd_pr__pfet_01v8_hvt ad=0.135 pd=1.27 as=0.135 ps=1.27 w=1 l=0.15
X338 del2.delay_chain\[2\].inv1.Y del2.delay_chain\[2\].inv1.A vccd1 vccd1 sky130_fd_pr__pfet_01v8_hvt ad=0.26 pd=2.52 as=0.26 ps=2.52 w=1 l=0.15
X345 a_2111_3285# _76_.CLK vccd1 vccd1 sky130_fd_pr__pfet_01v8_hvt ad=0.1664 pd=1.8 as=0.0864 ps=0.91 w=0.64 l=0.15
X347 a_6649_15823# _63_.B2 _62_.Y vccd1 sky130_fd_pr__pfet_01v8_hvt ad=0.135 pd=1.27 as=0.135 ps=1.27 w=1 l=0.15
X349 _74_.CLK a_1753_1109# vccd1 vccd1 sky130_fd_pr__pfet_01v8_hvt ad=0.14 pd=1.28 as=0.1375 ps=1.275 w=1 l=0.15
X352 _38_.Y _38_.B1 vccd1 vccd1 sky130_fd_pr__pfet_01v8_hvt ad=0.174 pd=1.39 as=0.182 ps=1.92 w=0.7 l=0.15
X353 vssd1 _59_.A2 a_5179_12879# vssd1 sky130_fd_pr__nfet_01v8 ad=0.08775 pd=0.92 as=0.115375 ps=1.005 w=0.65 l=0.15
X354 a_4219_2197# a_4510_2497# a_4461_2589# vccd1 sky130_fd_pr__pfet_01v8_hvt ad=0.0567 pd=0.69 as=0.0882 ps=0.84 w=0.42 l=0.15
X358 vssd1 a_2743_14954# _68_.A vssd1 sky130_fd_pr__nfet_01v8 ad=0.0754 pd=0.81 as=0.1352 ps=1.56 w=0.52 l=0.15
X362 temp1.dac.parallel_cells\[3\].vdac_batch.einvp_batch\[5\].vref.Z _63_.A1 a_4252_13103# vssd1 sky130_fd_pr__nfet_01v8 ad=0.1755 pd=1.84 as=0.235625 ps=1.375 w=0.65 l=0.15
X364 a_7423_1501# a_6559_1135# a_7166_1247# vccd1 sky130_fd_pr__pfet_01v8_hvt ad=0.0567 pd=0.69 as=0.1095 ps=1.075 w=0.42 l=0.15
X373 clkbuf_0_io_in[0].X a_2962_2767# vssd1 vssd1 sky130_fd_pr__nfet_01v8 ad=0.0588 pd=0.7 as=0.0588 ps=0.7 w=0.42 l=0.15
X376 io_out[2] a_4051_2197# vccd1 vccd1 sky130_fd_pr__pfet_01v8_hvt ad=0.135 pd=1.27 as=0.26 ps=2.52 w=1 l=0.15
X378 del2.delay_chain\[2\].inv2.Y del2.delay_chain\[2\].inv1.Y vssd1 vssd1 sky130_fd_pr__nfet_01v8 ad=0.169 pd=1.82 as=0.169 ps=1.82 w=0.65 l=0.15
X381 _41_.A _38_.A1 vssd1 vssd1 sky130_fd_pr__nfet_01v8 ad=0.08775 pd=0.92 as=0.26 ps=2.1 w=0.65 l=0.15
X382 vccd1 _62_.Y a_2143_11471# vccd1 sky130_fd_pr__pfet_01v8_hvt ad=0.32075 pd=1.685 as=0.1092 ps=1.36 w=0.42 l=0.15
X383 vssd1 temp1.dac.parallel_cells\[3\].vdac_batch.einvp_batch\[5\].vref.TE a_5271_21263# vssd1 sky130_fd_pr__nfet_01v8 ad=0.097 pd=0.975 as=0.1092 ps=1.36 w=0.42 l=0.15
X384 _69_.Y _41_.A vccd1 vccd1 sky130_fd_pr__pfet_01v8_hvt ad=0.135 pd=1.27 as=0.26 ps=2.52 w=1 l=0.15
X386 a_1659_4373# a_1827_4373# vssd1 vssd1 sky130_fd_pr__nfet_01v8 ad=0.169 pd=1.82 as=0.08775 ps=0.92 w=0.65 l=0.15
X398 a_12071_13353# temp1.dac.parallel_cells\[3\].vdac_batch.einvp_batch\[0\].pupd.A temp1.dac.parallel_cells\[3\].vdac_batch.einvp_batch\[5\].vref.Z vccd1 sky130_fd_pr__pfet_01v8_hvt ad=0.1825 pd=1.365 as=0.27 ps=2.54 w=1 l=0.15
X399 a_2320_11791# _62_.Y vssd1 vssd1 sky130_fd_pr__nfet_01v8 ad=0.235625 pd=1.375 as=0.097 ps=0.975 w=0.65 l=0.15
X401 a_4251_5487# temp1.dac.parallel_cells\[3\].vdac_batch.einvp_batch\[0\].pupd.A temp1.dac.parallel_cells\[3\].vdac_batch.einvp_batch\[5\].vref.Z vssd1 sky130_fd_pr__nfet_01v8 ad=0.235625 pd=1.375 as=0.1755 ps=1.84 w=0.65 l=0.15
X411 vccd1 a_2962_2767# clkbuf_0_io_in[0].X vccd1 sky130_fd_pr__pfet_01v8_hvt ad=0.1375 pd=1.275 as=0.14 ps=1.28 w=1 l=0.15
X412 vssd1 clkbuf_0_io_in[0].X a_2686_1679# vssd1 sky130_fd_pr__nfet_01v8 ad=0.0588 pd=0.7 as=0.0588 ps=0.7 w=0.42 l=0.15
X414 _59_.B1 _43_.X a_1591_17455# vssd1 sky130_fd_pr__nfet_01v8 ad=0.08775 pd=0.92 as=0.08775 ps=0.92 w=0.65 l=0.15
X419 vssd1 temp1.capload\[8\].cap_16.LO a_4803_19631# vssd1 sky130_fd_pr__nfet_01v8 ad=0.097 pd=0.975 as=0.235625 ps=1.375 w=0.65 l=0.15
X420 vccd1 a_4503_2197# a_4510_2497# vccd1 sky130_fd_pr__pfet_01v8_hvt ad=0.0864 pd=0.91 as=0.1664 ps=1.8 w=0.64 l=0.15
X427 vccd1 _63_.X a_4075_13103# vccd1 sky130_fd_pr__pfet_01v8_hvt ad=0.32075 pd=1.685 as=0.1092 ps=1.36 w=0.42 l=0.15
X441 a_3704_12675# a_3431_12919# a_3622_12675# vccd1 sky130_fd_pr__pfet_01v8_hvt ad=0.0441 pd=0.63 as=0.1092 ps=1.36 w=0.42 l=0.15
X444 a_3983_14191# temp1.dac.parallel_cells\[1\].vdac_batch.einvp_batch\[0\].pupd.A vssd1 vssd1 sky130_fd_pr__nfet_01v8 ad=0.169 pd=1.82 as=0.08775 ps=0.92 w=0.65 l=0.15
X445 temp1.dac.parallel_cells\[1\].vdac_batch.einvp_batch\[0\].pupd.A _46_.X vccd1 vccd1 sky130_fd_pr__pfet_01v8_hvt ad=0.135 pd=1.27 as=0.26 ps=2.52 w=1 l=0.15
X450 a_4931_1501# a_4149_1135# a_4847_1501# vccd1 sky130_fd_pr__pfet_01v8_hvt ad=0.0882 pd=0.84 as=0.0567 ps=0.69 w=0.42 l=0.15
X451 a_4477_10383# _59_.B1 vccd1 vccd1 sky130_fd_pr__pfet_01v8_hvt ad=0.135 pd=1.27 as=0.16 ps=1.32 w=1 l=0.15
X454 vccd1 a_12120_13255# a_12071_13353# vccd1 sky130_fd_pr__pfet_01v8_hvt ad=0.32075 pd=1.685 as=0.1825 ps=1.365 w=1 l=0.15
X458 vssd1 _38_.B1 a_5057_2223# vssd1 sky130_fd_pr__nfet_01v8 ad=0.1092 pd=1.36 as=0.0813 ps=0.83 w=0.42 l=0.15
X461 vssd1 a_2962_2767# clkbuf_0_io_in[0].X vssd1 sky130_fd_pr__nfet_01v8 ad=0.0588 pd=0.7 as=0.0588 ps=0.7 w=0.42 l=0.15
X462 vccd1 _43_.X temp1.dac.parallel_cells\[1\].vdac_batch.einvp_batch\[0\].pupd.A vccd1 sky130_fd_pr__pfet_01v8_hvt ad=0.26 pd=2.52 as=0.135 ps=1.27 w=1 l=0.15
X465 vccd1 a_4208_15431# a_4159_15529# vccd1 sky130_fd_pr__pfet_01v8_hvt ad=0.32075 pd=1.685 as=0.1825 ps=1.365 w=1 l=0.15
X469 temp1.dac.parallel_cells\[3\].vdac_batch.einvp_batch\[5\].vref.TE _50_.X a_4477_10383# vccd1 sky130_fd_pr__pfet_01v8_hvt ad=0.135 pd=1.27 as=0.135 ps=1.27 w=1 l=0.15
X478 a_4181_17455# _59_.B1 a_4097_17455# vssd1 sky130_fd_pr__nfet_01v8 ad=0.08775 pd=0.92 as=0.08775 ps=0.92 w=0.65 l=0.15
X479 vccd1 a_7591_1403# a_7507_1501# vccd1 sky130_fd_pr__pfet_01v8_hvt ad=0.1113 pd=1.37 as=0.0882 ps=0.84 w=0.42 l=0.15
X487 a_3795_10383# temp1.dac.parallel_cells\[3\].vdac_batch.einvp_batch\[0\].pupd.A vccd1 vccd1 sky130_fd_pr__pfet_01v8_hvt ad=0.135 pd=1.27 as=0.135 ps=1.27 w=1 l=0.15
X491 vccd1 _50_.X temp1.dac.parallel_cells\[3\].vdac_batch.einvp_batch\[0\].pupd.A vccd1 sky130_fd_pr__pfet_01v8_hvt ad=0.135 pd=1.27 as=0.135 ps=1.27 w=1 l=0.15
X492 a_6649_15823# _59_.B1 vccd1 vccd1 sky130_fd_pr__pfet_01v8_hvt ad=0.135 pd=1.27 as=0.135 ps=1.27 w=1 l=0.15
X493 vssd1 temp1.dac.parallel_cells\[3\].vdac_batch.einvp_batch\[0\].pupd.TE a_9135_12015# vssd1 sky130_fd_pr__nfet_01v8 ad=0.097 pd=0.975 as=0.1092 ps=1.36 w=0.42 l=0.15
X504 _44_.B_N a_1659_2197# vccd1 vccd1 sky130_fd_pr__pfet_01v8_hvt ad=0.135 pd=1.27 as=0.26 ps=2.52 w=1 l=0.15
X507 vccd1 _54_.A a_5453_17705# vccd1 sky130_fd_pr__pfet_01v8_hvt ad=0.14825 pd=1.34 as=0.0441 ps=0.63 w=0.42 l=0.15
X518 a_5172_20719# temp1.dac.parallel_cells\[3\].vdac_batch.einvp_batch\[5\].vref.TE vssd1 vssd1 sky130_fd_pr__nfet_01v8 ad=0.235625 pd=1.375 as=0.097 ps=0.975 w=0.65 l=0.15
X524 vccd1 a_5462_14441# _63_.B2 vccd1 sky130_fd_pr__pfet_01v8_hvt ad=0.31 pd=2.62 as=0.135 ps=1.27 w=1 l=0.15
X525 a_5371_17705# a_5179_17461# vssd1 vssd1 sky130_fd_pr__nfet_01v8 ad=0.0567 pd=0.69 as=0.1575 ps=1.17 w=0.42 l=0.15
X533 vssd1 del1.delay_chain\[2\].inv2.A del1.delay_chain\[2\].inv2.Y vssd1 sky130_fd_pr__nfet_01v8 ad=0.169 pd=1.82 as=0.169 ps=1.82 w=0.65 l=0.15
X534 a_5462_14441# a_5271_14197# vssd1 vssd1 sky130_fd_pr__nfet_01v8 ad=0.0567 pd=0.69 as=0.15645 ps=1.165 w=0.42 l=0.15
X539 clkbuf_0_io_in[0].X a_2962_2767# vccd1 vccd1 sky130_fd_pr__pfet_01v8_hvt ad=0.14 pd=1.28 as=0.14 ps=1.28 w=1 l=0.15
X542 vccd1 a_2111_2197# a_2118_2497# vccd1 sky130_fd_pr__pfet_01v8_hvt ad=0.0864 pd=0.91 as=0.1664 ps=1.8 w=0.64 l=0.15
X545 vccd1 _74_.CLK a_6559_1135# vccd1 sky130_fd_pr__pfet_01v8_hvt ad=0.0864 pd=0.91 as=0.1664 ps=1.8 w=0.64 l=0.15
X548 a_3055_21807# temp1.capload\[0\].cap.A temp1.capload\[3\].cap.Z vssd1 sky130_fd_pr__nfet_01v8 ad=0.235625 pd=1.375 as=0.1755 ps=1.84 w=0.65 l=0.15
X553 vccd1 a_2191_8725# temp1.dac.parallel_cells\[3\].vdac_batch.einvp_batch\[0\].pupd.TE vccd1 sky130_fd_pr__pfet_01v8_hvt ad=0.135 pd=1.27 as=0.135 ps=1.27 w=1 l=0.15
X555 vccd1 a_6515_3463# _37_.A vccd1 sky130_fd_pr__pfet_01v8_hvt ad=0.14825 pd=1.34 as=0.275 ps=2.55 w=1 l=0.15
X557 vccd1 a_3622_12675# _50_.X vccd1 sky130_fd_pr__pfet_01v8_hvt ad=0.31 pd=2.62 as=0.135 ps=1.27 w=1 l=0.15
X559 a_6649_15823# _59_.B1 vccd1 vccd1 sky130_fd_pr__pfet_01v8_hvt ad=0.135 pd=1.27 as=0.26 ps=2.52 w=1 l=0.15
X566 a_2111_2197# _76_.CLK vssd1 vssd1 sky130_fd_pr__nfet_01v8 ad=0.1092 pd=1.36 as=0.0567 ps=0.69 w=0.42 l=0.15
X567 vccd1 a_2318_4373# a_2247_4399# vccd1 sky130_fd_pr__pfet_01v8_hvt ad=0.178875 pd=1.26 as=0.1095 ps=1.075 w=0.75 l=0.15
X575 _74_.CLK a_1753_1109# vccd1 vccd1 sky130_fd_pr__pfet_01v8_hvt ad=0.14 pd=1.28 as=0.14 ps=1.28 w=1 l=0.15
X578 a_6239_19783# _58_.A vssd1 vssd1 sky130_fd_pr__nfet_01v8 ad=0.0567 pd=0.69 as=0.10025 ps=0.985 w=0.42 l=0.15
X585 vssd1 _66_.Y a_2665_2223# vssd1 sky130_fd_pr__nfet_01v8 ad=0.1092 pd=1.36 as=0.0813 ps=0.83 w=0.42 l=0.15
X591 a_11795_13967# temp1.dac.parallel_cells\[1\].vdac_batch.einvp_batch\[0\].pupd.A temp1.dac.parallel_cells\[3\].vdac_batch.einvp_batch\[5\].vref.Z vssd1 sky130_fd_pr__nfet_01v8 ad=0.235625 pd=1.375 as=0.1755 ps=1.84 w=0.65 l=0.15
X593 vssd1 a_1753_1109# _74_.CLK vssd1 sky130_fd_pr__nfet_01v8 ad=0.0588 pd=0.7 as=0.0588 ps=0.7 w=0.42 l=0.15
X602 io_out[3] a_1659_4087# vccd1 vccd1 sky130_fd_pr__pfet_01v8_hvt ad=0.135 pd=1.27 as=0.26 ps=2.52 w=1 l=0.15
X603 vccd1 _63_.A1 a_4453_17705# vccd1 sky130_fd_pr__pfet_01v8_hvt ad=0.165 pd=1.33 as=0.105 ps=1.21 w=1 l=0.15
X604 vccd1 _58_.A a_2611_16617# vccd1 sky130_fd_pr__pfet_01v8_hvt ad=0.14 pd=1.28 as=0.14 ps=1.28 w=1 l=0.15
X612 vccd1 temp1.dac.parallel_cells\[3\].vdac_batch.einvp_batch\[5\].vref.TE a_2235_20175# vccd1 sky130_fd_pr__pfet_01v8_hvt ad=0.32075 pd=1.685 as=0.1092 ps=1.36 w=0.42 l=0.15
X613 vssd1 a_5280_17143# _38_.B1 vssd1 sky130_fd_pr__nfet_01v8 ad=0.097 pd=0.975 as=0.169 ps=1.82 w=0.65 l=0.15
X615 a_5772_15431# temp1.capload\[7\].cap_15.LO vccd1 vccd1 sky130_fd_pr__pfet_01v8_hvt ad=0.1092 pd=1.36 as=0.32075 ps=1.685 w=0.42 l=0.15
X618 vssd1 a_2686_1679# _76_.CLK vssd1 sky130_fd_pr__nfet_01v8 ad=0.1113 pd=1.37 as=0.0588 ps=0.7 w=0.42 l=0.15
X621 a_10968_10927# _60_.Y vssd1 vssd1 sky130_fd_pr__nfet_01v8 ad=0.235625 pd=1.375 as=0.097 ps=0.975 w=0.65 l=0.15
X627 vccd1 input6.X a_3704_12675# vccd1 sky130_fd_pr__pfet_01v8_hvt ad=0.14825 pd=1.34 as=0.0441 ps=0.63 w=0.42 l=0.15
X629 del1.delay_chain\[2\].inv2.A del1.delay_chain\[2\].inv1.A vccd1 vccd1 sky130_fd_pr__pfet_01v8_hvt ad=0.26 pd=2.52 as=0.26 ps=2.52 w=1 l=0.15
X631 a_2191_8725# _50_.X a_2997_9001# vccd1 sky130_fd_pr__pfet_01v8_hvt ad=0.135 pd=1.27 as=0.135 ps=1.27 w=1 l=0.15
X632 temp1.dac.parallel_cells\[3\].vdac_batch.einvp_batch\[5\].vref.Z temp1.dac.parallel_cells\[3\].vdac_batch.einvp_batch\[5\].vref.Z a_2320_11791# vssd1 sky130_fd_pr__nfet_01v8 ad=0.1755 pd=1.84 as=0.235625 ps=1.375 w=0.65 l=0.15
X633 vccd1 _74_.CLK a_3983_1135# vccd1 sky130_fd_pr__pfet_01v8_hvt ad=0.0864 pd=0.91 as=0.1664 ps=1.8 w=0.64 l=0.15
X634 a_3795_10383# _59_.A2 temp1.dac.parallel_cells\[3\].vdac_batch.einvp_batch\[5\].vref.TE vccd1 sky130_fd_pr__pfet_01v8_hvt ad=0.135 pd=1.27 as=0.135 ps=1.27 w=1 l=0.15
X636 a_2412_20495# temp1.dac.parallel_cells\[3\].vdac_batch.einvp_batch\[5\].vref.TE vssd1 vssd1 sky130_fd_pr__nfet_01v8 ad=0.235625 pd=1.375 as=0.097 ps=0.975 w=0.65 l=0.15
X641 vccd1 a_2962_2767# clkbuf_0_io_in[0].X vccd1 sky130_fd_pr__pfet_01v8_hvt ad=0.14 pd=1.28 as=0.14 ps=1.28 w=1 l=0.15
X645 a_5280_17143# _37_.A vccd1 vccd1 sky130_fd_pr__pfet_01v8_hvt ad=0.1092 pd=1.36 as=0.14075 ps=1.325 w=0.42 l=0.15
X648 vssd1 io_in[3] a_1591_7119# vssd1 sky130_fd_pr__nfet_01v8 ad=0.0754 pd=0.81 as=0.1352 ps=1.56 w=0.52 l=0.15
X651 a_3737_19407# _58_.X a_3639_19087# vssd1 sky130_fd_pr__nfet_01v8 ad=0.099125 pd=0.955 as=0.2015 ps=1.92 w=0.65 l=0.15
X653 vccd1 temp1.dac.parallel_cells\[3\].vdac_batch.einvp_batch\[0\].pupd.A a_3795_10383# vccd1 sky130_fd_pr__pfet_01v8_hvt ad=0.16 pd=1.32 as=0.135 ps=1.27 w=1 l=0.15
X660 temp1.dac.parallel_cells\[1\].vdac_batch.einvp_batch\[0\].pupd.A _43_.X a_9963_10927# vssd1 sky130_fd_pr__nfet_01v8 ad=0.08775 pd=0.92 as=0.08775 ps=0.92 w=0.65 l=0.15
X664 vssd1 del2.delay_chain\[0\].inv2.A del2.delay_chain\[1\].inv1.A vssd1 sky130_fd_pr__nfet_01v8 ad=0.169 pd=1.82 as=0.169 ps=1.82 w=0.65 l=0.15
X670 a_6643_8527# _63_.A1 temp1.dac.parallel_cells\[3\].vdac_batch.einvp_batch\[5\].vref.Z vssd1 sky130_fd_pr__nfet_01v8 ad=0.235625 pd=1.375 as=0.1755 ps=1.84 w=0.65 l=0.15
X671 _54_.X a_5371_17705# vssd1 vssd1 sky130_fd_pr__nfet_01v8 ad=0.1755 pd=1.84 as=0.101875 ps=0.99 w=0.65 l=0.15
X672 a_2318_2197# a_2111_2197# a_2494_2589# vccd1 sky130_fd_pr__pfet_01v8_hvt ad=0.06825 pd=0.745 as=0.07665 ps=0.785 w=0.42 l=0.15
X675 a_7932_13103# _59_.B1 vssd1 vssd1 sky130_fd_pr__nfet_01v8 ad=0.235625 pd=1.375 as=0.097 ps=0.975 w=0.65 l=0.15
X679 _76_.CLK a_2686_1679# vccd1 vccd1 sky130_fd_pr__pfet_01v8_hvt ad=0.14 pd=1.28 as=0.14 ps=1.28 w=1 l=0.15
X686 a_3828_19407# _59_.A2 vssd1 vssd1 sky130_fd_pr__nfet_01v8 ad=0.08775 pd=0.92 as=0.169 ps=1.82 w=0.65 l=0.15
X689 a_3983_14441# _59_.B1 vccd1 vccd1 sky130_fd_pr__pfet_01v8_hvt ad=0.135 pd=1.27 as=0.135 ps=1.27 w=1 l=0.15
X698 a_4944_19319# temp1.capload\[2\].cap_10.LO vccd1 vccd1 sky130_fd_pr__pfet_01v8_hvt ad=0.1092 pd=1.36 as=0.32075 ps=1.685 w=0.42 l=0.15
X699 a_5057_2223# a_4503_2197# a_4710_2197# vssd1 sky130_fd_pr__nfet_01v8 ad=0.0813 pd=0.83 as=0.0621 ps=0.705 w=0.36 l=0.15
X703 vccd1 temp1.dac.parallel_cells\[3\].vdac_batch.einvp_batch\[5\].vref.Z a_2143_18543# vccd1 sky130_fd_pr__pfet_01v8_hvt ad=0.32075 pd=1.685 as=0.1092 ps=1.36 w=0.42 l=0.15
X705 a_6469_19881# _42_.B a_6374_19881# vccd1 sky130_fd_pr__pfet_01v8_hvt ad=0.0441 pd=0.63 as=0.06825 ps=0.745 w=0.42 l=0.15
X708 a_2467_2223# a_2247_2223# vssd1 vssd1 sky130_fd_pr__nfet_01v8 ad=0.0696 pd=0.765 as=0.12095 ps=1.085 w=0.42 l=0.15
X709 a_5057_2223# a_4510_2497# a_4710_2197# vccd1 sky130_fd_pr__pfet_01v8_hvt ad=0.05775 pd=0.695 as=0.06825 ps=0.745 w=0.42 l=0.15
X710 vssd1 _74_.CLK a_6559_1135# vssd1 sky130_fd_pr__nfet_01v8 ad=0.0567 pd=0.69 as=0.1092 ps=1.36 w=0.42 l=0.15
X712 a_4097_17455# _58_.X a_3994_17455# vssd1 sky130_fd_pr__nfet_01v8 ad=0.08775 pd=0.92 as=0.23725 ps=2.03 w=0.65 l=0.15
R5 temp1.capload\[2\].cap_10.LO vssd1 sky130_fd_pr__res_generic_po w=0.48 l=0.045
X721 a_2494_2589# a_2247_2223# vccd1 vccd1 sky130_fd_pr__pfet_01v8_hvt ad=0.07665 pd=0.785 as=0.178875 ps=1.26 w=0.42 l=0.15
X725 vccd1 temp1.dac.parallel_cells\[3\].vdac_batch.einvp_batch\[0\].pupd.A a_3795_10383# vccd1 sky130_fd_pr__pfet_01v8_hvt ad=0.135 pd=1.27 as=0.135 ps=1.27 w=1 l=0.15
X729 vssd1 _63_.A1 a_4181_17455# vssd1 sky130_fd_pr__nfet_01v8 ad=0.08775 pd=0.92 as=0.08775 ps=0.92 w=0.65 l=0.15
X730 vccd1 _59_.B1 a_6649_15823# vccd1 sky130_fd_pr__pfet_01v8_hvt ad=0.135 pd=1.27 as=0.135 ps=1.27 w=1 l=0.15
X731 vccd1 _63_.A1 a_7331_15823# vccd1 sky130_fd_pr__pfet_01v8_hvt ad=0.135 pd=1.27 as=0.135 ps=1.27 w=1 l=0.15
X738 io_out[5] a_1659_4373# vssd1 vssd1 sky130_fd_pr__nfet_01v8 ad=0.08775 pd=0.92 as=0.169 ps=1.82 w=0.65 l=0.15
X739 vssd1 _41_.A _41_.Y vssd1 sky130_fd_pr__nfet_01v8 ad=0.169 pd=1.82 as=0.08775 ps=0.92 w=0.65 l=0.15
X751 temp1.dac.parallel_cells\[3\].vdac_batch.einvp_batch\[5\].vref.Z temp1.dac.parallel_cells\[3\].vdac_batch.einvp_batch\[5\].vref.Z a_5172_20719# vssd1 sky130_fd_pr__nfet_01v8 ad=0.1755 pd=1.84 as=0.235625 ps=1.375 w=0.65 l=0.15
X752 a_10875_16143# temp1.dac.parallel_cells\[1\].vdac_batch.einvp_batch\[0\].pupd.A temp1.dac.parallel_cells\[3\].vdac_batch.einvp_batch\[5\].vref.Z vssd1 sky130_fd_pr__nfet_01v8 ad=0.235625 pd=1.375 as=0.1755 ps=1.84 w=0.65 l=0.15
X753 _59_.B1 _43_.X vccd1 vccd1 sky130_fd_pr__pfet_01v8_hvt ad=0.135 pd=1.27 as=0.135 ps=1.27 w=1 l=0.15
X756 _76_.CLK a_2686_1679# vssd1 vssd1 sky130_fd_pr__nfet_01v8 ad=0.0588 pd=0.7 as=0.0588 ps=0.7 w=0.42 l=0.15
X758 temp1.dac.parallel_cells\[0\].vdac_batch.einvp_batch\[0\].vref.TE _59_.B1 a_5179_12879# vssd1 sky130_fd_pr__nfet_01v8 ad=0.092625 pd=0.935 as=0.169 ps=1.82 w=0.65 l=0.15
X763 a_6745_3561# _38_.A1 a_6650_3561# vccd1 sky130_fd_pr__pfet_01v8_hvt ad=0.0441 pd=0.63 as=0.06825 ps=0.745 w=0.42 l=0.15
X773 a_2318_2197# a_2118_2497# a_2467_2223# vssd1 sky130_fd_pr__nfet_01v8 ad=0.0621 pd=0.705 as=0.0696 ps=0.765 w=0.36 l=0.15
X775 a_4895_19407# temp1.capload\[0\].cap.A temp1.capload\[2\].cap.Z vssd1 sky130_fd_pr__nfet_01v8 ad=0.235625 pd=1.375 as=0.1755 ps=1.84 w=0.65 l=0.15
X776 a_5448_21583# temp1.dac.parallel_cells\[3\].vdac_batch.einvp_batch\[5\].vref.TE vssd1 vssd1 sky130_fd_pr__nfet_01v8 ad=0.235625 pd=1.375 as=0.097 ps=0.975 w=0.65 l=0.15
X781 a_4431_14441# _59_.A2 _60_.Y vccd1 sky130_fd_pr__pfet_01v8_hvt ad=0.135 pd=1.27 as=0.135 ps=1.27 w=1 l=0.15
X782 io_out[4] a_7591_1403# vccd1 vccd1 sky130_fd_pr__pfet_01v8_hvt ad=0.135 pd=1.27 as=0.135 ps=1.27 w=1 l=0.15
R6 temp1.capload\[5\].cap_13.LO vssd1 sky130_fd_pr__res_generic_po w=0.48 l=0.045
X791 vccd1 _46_.A a_1956_20969# vccd1 sky130_fd_pr__pfet_01v8_hvt ad=0.14825 pd=1.34 as=0.0441 ps=0.63 w=0.42 l=0.15
X793 vssd1 _74_.CLK a_3983_1135# vssd1 sky130_fd_pr__nfet_01v8 ad=0.0567 pd=0.69 as=0.1092 ps=1.36 w=0.42 l=0.15
X802 vssd1 temp1.dac.parallel_cells\[3\].vdac_batch.einvp_batch\[0\].pupd.TE a_4167_9839# vssd1 sky130_fd_pr__nfet_01v8 ad=0.097 pd=0.975 as=0.1092 ps=1.36 w=0.42 l=0.15
X805 a_4208_15431# temp1.capload\[9\].cap.TE vccd1 vccd1 sky130_fd_pr__pfet_01v8_hvt ad=0.1092 pd=1.36 as=0.32075 ps=1.685 w=0.42 l=0.15
X814 clkbuf_0_io_in[0].X a_2962_2767# vssd1 vssd1 sky130_fd_pr__nfet_01v8 ad=0.0588 pd=0.7 as=0.0588 ps=0.7 w=0.42 l=0.15
X821 a_2665_2223# a_2111_2197# a_2318_2197# vssd1 sky130_fd_pr__nfet_01v8 ad=0.0813 pd=0.83 as=0.0621 ps=0.705 w=0.36 l=0.15
X825 a_2665_2223# a_2118_2497# a_2318_2197# vccd1 sky130_fd_pr__pfet_01v8_hvt ad=0.05775 pd=0.695 as=0.06825 ps=0.745 w=0.42 l=0.15
X829 vssd1 temp1.dac.parallel_cells\[3\].vdac_batch.einvp_batch\[5\].vref.TE a_1775_16367# vssd1 sky130_fd_pr__nfet_01v8 ad=0.097 pd=0.975 as=0.1092 ps=1.36 w=0.42 l=0.15
X830 vssd1 a_1753_1109# _74_.CLK vssd1 sky130_fd_pr__nfet_01v8 ad=0.0588 pd=0.7 as=0.0588 ps=0.7 w=0.42 l=0.15
X842 a_2962_2767# io_in[0] vssd1 vssd1 sky130_fd_pr__nfet_01v8 ad=0.0588 pd=0.7 as=0.1113 ps=1.37 w=0.42 l=0.15
X844 vccd1 a_11201_16367# _59_.A2 vccd1 sky130_fd_pr__pfet_01v8_hvt ad=0.135 pd=1.27 as=0.135 ps=1.27 w=1 l=0.15
X845 a_4024_16055# _62_.Y vssd1 vssd1 sky130_fd_pr__nfet_01v8 ad=0.1092 pd=1.36 as=0.097 ps=0.975 w=0.42 l=0.15
X848 vccd1 temp1.dac.parallel_cells\[3\].vdac_batch.einvp_batch\[5\].vref.TE a_4995_20719# vccd1 sky130_fd_pr__pfet_01v8_hvt ad=0.32075 pd=1.685 as=0.1092 ps=1.36 w=0.42 l=0.15
X849 _59_.X a_3639_19087# vccd1 vccd1 sky130_fd_pr__pfet_01v8_hvt ad=0.28 pd=2.56 as=0.165 ps=1.33 w=1 l=0.15
X851 vssd1 a_2750_20693# _58_.X vssd1 sky130_fd_pr__nfet_01v8 ad=0.10675 pd=1.005 as=0.08775 ps=0.92 w=0.65 l=0.15
X854 temp1.dac.parallel_cells\[3\].vdac_batch.einvp_batch\[5\].vref.Z temp1.dac.parallel_cells\[3\].vdac_batch.einvp_batch\[5\].vref.Z a_1952_16367# vssd1 sky130_fd_pr__nfet_01v8 ad=0.1755 pd=1.84 as=0.235625 ps=1.375 w=0.65 l=0.15
X862 temp1.dac.parallel_cells\[3\].vdac_batch.einvp_batch\[5\].vref.Z temp1.dac.parallel_cells\[3\].vdac_batch.einvp_batch\[5\].vref.Z a_2412_20495# vssd1 sky130_fd_pr__nfet_01v8 ad=0.1755 pd=1.84 as=0.235625 ps=1.375 w=0.65 l=0.15
X863 vccd1 a_1753_1109# _74_.CLK vccd1 sky130_fd_pr__pfet_01v8_hvt ad=0.14 pd=1.28 as=0.14 ps=1.28 w=1 l=0.15
X870 temp1.dac.parallel_cells\[3\].vdac_batch.einvp_batch\[5\].vref.TE _59_.A2 a_3795_10383# vccd1 sky130_fd_pr__pfet_01v8_hvt ad=0.135 pd=1.27 as=0.135 ps=1.27 w=1 l=0.15
X871 _59_.A2 a_11201_16367# vccd1 vccd1 sky130_fd_pr__pfet_01v8_hvt ad=0.135 pd=1.27 as=0.135 ps=1.27 w=1 l=0.15